
  EPA STORM WATER MANAGEMENT MODEL - VERSION 5.1 (Build 5.1.012)
  --------------------------------------------------------------

  ' Extran with surcharge in 2 foot circular conduits' ;' SWMM CRADA Example 1 ' ; 
  
  
  *********************************************************
  NOTE: The summary statistics displayed in this report are
  based on results found at every computational time step,  
  not just on results from each reporting time step.
  *********************************************************
  
  ****************
  Analysis Options
  ****************
  Flow Units ............... CFS
  Process Models:
    Rainfall/Runoff ........ NO
    RDII ................... NO
    Snowmelt ............... NO
    Groundwater ............ NO
    Flow Routing ........... YES
    Ponding Allowed ........ NO
    Water Quality .......... NO
  Flow Routing Method ...... DYNWAVE
  Starting Date ............ 02/22/2002 00:00:00
  Ending Date .............. 02/22/2002 04:00:00
  Antecedent Dry Days ...... 0.0
  Report Time Step ......... 00:00:01
  Routing Time Step ........ 1.00 sec
  Variable Time Step ....... YES
  Maximum Trials ........... 8
  Number of Threads ........ 1
  Head Tolerance ........... 0.005000 ft
  
  
  **************************        Volume        Volume
  Flow Routing Continuity        acre-feet      10^6 gal
  **************************     ---------     ---------
  Dry Weather Inflow .......         0.000         0.000
  Wet Weather Inflow .......         0.000         0.000
  Groundwater Inflow .......         0.000         0.000
  RDII Inflow ..............         0.000         0.000
  External Inflow ..........         8.005         2.608
  External Outflow .........         1.283         0.418
  Flooding Loss ............         5.504         1.794
  Evaporation Loss .........         0.000         0.000
  Exfiltration Loss ........         0.000         0.000
  Initial Stored Volume ....         0.000         0.000
  Final Stored Volume ......         0.701         0.228
  Continuity Error (%) .....         6.452
  
  
  *************************
  Highest Continuity Errors
  *************************
  Node mid8 (8.49%)
  Node mid7 (7.96%)
  Node mid6 (7.44%)
  Node mid5 (7.01%)
  Node mid4 (6.47%)
  
  
  ***************************
  Time-Step Critical Elements
  ***************************
  None
  
  
  ********************************
  Highest Flow Instability Indexes
  ********************************
  All links are stable.
  
  
  *************************
  Routing Time Step Summary
  *************************
  Minimum Time Step           :     0.50 sec
  Average Time Step           :     1.00 sec
  Maximum Time Step           :     1.00 sec
  Percent in Steady State     :     0.00
  Average Iterations per Step :     2.24
  Percent Not Converging      :     3.06
  
  
  ******************
  Node Depth Summary
  ******************
  
  ---------------------------------------------------------------------------------
                                 Average  Maximum  Maximum  Time of Max    Reported
                                   Depth    Depth      HGL   Occurrence   Max Depth
  Node                 Type         Feet     Feet     Feet  days hr:min        Feet
  ---------------------------------------------------------------------------------
  Inflow               JUNCTION     9.73    10.00    20.00     0  00:05       10.00
  mid1                 JUNCTION     8.80    10.00    20.00     0  00:12       10.00
  mid2                 JUNCTION     7.92    10.00    20.00     0  00:19       10.00
  mid3                 JUNCTION     7.10    10.00    20.00     0  00:29       10.00
  mid4                 JUNCTION     6.33     7.67    17.67     0  03:59        7.67
  mid5                 JUNCTION     5.60     7.08    17.08     0  03:59        7.08
  mid6                 JUNCTION     4.91     6.50    16.50     0  03:59        6.50
  mid7                 JUNCTION     4.26     5.92    15.92     0  03:59        5.92
  mid8                 JUNCTION     3.63     5.33    15.33     0  03:59        5.33
  mid9                 JUNCTION     3.08     4.82    14.82     0  03:59        4.82
  Outlet               OUTFALL      0.00     0.00    10.00     0  00:00        0.00
  
  
  *******************
  Node Inflow Summary
  *******************
  
  -------------------------------------------------------------------------------------------------
                                  Maximum  Maximum                  Lateral       Total        Flow
                                  Lateral    Total  Time of Max      Inflow      Inflow     Balance
                                   Inflow   Inflow   Occurrence      Volume      Volume       Error
  Node                 Type           CFS      CFS  days hr:min    10^6 gal    10^6 gal     Percent
  -------------------------------------------------------------------------------------------------
  Inflow               JUNCTION     25.00    25.00     0  00:15        2.61        2.61       0.464
  mid1                 JUNCTION      0.00    20.04     0  00:12           0       0.804       5.256
  mid2                 JUNCTION      0.00    14.51     0  00:18           0       0.763       5.750
  mid3                 JUNCTION      0.00    11.62     0  00:19           0       0.721       6.343
  mid4                 JUNCTION      0.00    10.14     0  00:33           0       0.678       6.918
  mid5                 JUNCTION      0.00     9.15     0  00:43           0       0.634       7.536
  mid6                 JUNCTION      0.00     8.22     0  00:56           0        0.59       8.034
  mid7                 JUNCTION      0.00     7.43     0  01:10           0       0.546       8.645
  mid8                 JUNCTION      0.00     6.90     0  01:28           0       0.502       9.278
  mid9                 JUNCTION      0.00     6.52     0  01:44           0        0.46       9.948
  Outlet               OUTFALL       0.00     6.46     0  03:59           0       0.418       0.000
  
  
  **********************
  Node Surcharge Summary
  **********************
  
  Surcharging occurs when water rises above the top of the highest conduit.
  ---------------------------------------------------------------------
                                               Max. Height   Min. Depth
                                   Hours       Above Crown    Below Rim
  Node                 Type      Surcharged           Feet         Feet
  ---------------------------------------------------------------------
  Inflow               JUNCTION        3.91          8.000        0.000
  mid1                 JUNCTION        3.80          5.000        0.000
  mid2                 JUNCTION        3.68          5.000        0.000
  mid3                 JUNCTION        3.53          5.000        0.000
  mid4                 JUNCTION        3.35          2.667        2.333
  mid5                 JUNCTION        3.13          2.083        2.917
  mid6                 JUNCTION        2.88          1.500        3.500
  mid7                 JUNCTION        2.60          0.917        4.083
  mid8                 JUNCTION        2.31          0.333        4.667
  
  
  *********************
  Node Flooding Summary
  *********************
  
  Flooding refers to all water that overflows a node, whether it ponds or not.
  --------------------------------------------------------------------------
                                                             Total   Maximum
                                 Maximum   Time of Max       Flood    Ponded
                        Hours       Rate    Occurrence      Volume     Depth
  Node                 Flooded       CFS   days hr:min    10^6 gal      Feet
  --------------------------------------------------------------------------
  Inflow                  3.81     18.54      0  03:59       1.792     0.000
  mid1                    0.01     13.11      0  00:12       0.001     0.000
  mid2                    0.01      6.64      0  00:19       0.000     0.000
  mid3                    0.01      2.70      0  00:29       0.000     0.000
  
  
  ***********************
  Outfall Loading Summary
  ***********************
  
  -----------------------------------------------------------
                         Flow       Avg       Max       Total
                         Freq      Flow      Flow      Volume
  Outfall Node           Pcnt       CFS       CFS    10^6 gal
  -----------------------------------------------------------
  Outlet                64.04      6.06      6.46       0.418
  -----------------------------------------------------------
  System                64.04      6.06      6.46       0.418
  
  
  ********************
  Link Flow Summary
  ********************
  
  -----------------------------------------------------------------------------
                                 Maximum  Time of Max   Maximum    Max/    Max/
                                  |Flow|   Occurrence   |Veloc|    Full    Full
  Link                 Type          CFS  days hr:min    ft/sec    Flow   Depth
  -----------------------------------------------------------------------------
  pipe1                CONDUIT     20.04     0  00:12      6.41    1.37    1.00
  pipe2                CONDUIT     14.51     0  00:18      4.99    0.99    1.00
  pipe3                CONDUIT     11.62     0  00:19      4.28    0.79    1.00
  pipe4                CONDUIT     10.14     0  00:33      3.82    0.69    1.00
  pipe5                CONDUIT      9.15     0  00:43      3.51    0.63    1.00
  pipe6                CONDUIT      8.22     0  00:56      3.06    0.56    1.00
  pipe7                CONDUIT      7.43     0  01:10      2.74    0.51    1.00
  pipe8                CONDUIT      6.90     0  01:28      2.58    0.47    1.00
  pipe9                CONDUIT      6.52     0  01:44      2.44    0.44    0.96
  outlet               CONDUIT      6.46     0  03:59      2.65    0.44    0.72
  
  
  ***************************
  Flow Classification Summary
  ***************************
  
  -------------------------------------------------------------------------------------
                      Adjusted    ---------- Fraction of Time in Flow Class ---------- 
                       /Actual         Up    Down  Sub   Sup   Up    Down  Norm  Inlet 
  Conduit               Length    Dry  Dry   Dry   Crit  Crit  Crit  Crit  Ltd   Ctrl  
  -------------------------------------------------------------------------------------
  pipe1                   1.00   0.00  0.02  0.00  0.95  0.00  0.02  0.00  0.00  0.00
  pipe2                   1.00   0.02  0.01  0.00  0.93  0.00  0.03  0.00  0.00  0.00
  pipe3                   1.00   0.04  0.02  0.00  0.90  0.00  0.04  0.00  0.00  0.00
  pipe4                   1.00   0.06  0.03  0.00  0.86  0.00  0.05  0.00  0.00  0.00
  pipe5                   1.00   0.09  0.04  0.00  0.82  0.00  0.05  0.00  0.00  0.00
  pipe6                   1.00   0.13  0.04  0.00  0.78  0.00  0.06  0.00  0.00  0.00
  pipe7                   1.00   0.17  0.04  0.00  0.73  0.00  0.06  0.00  0.00  0.00
  pipe8                   1.00   0.21  0.05  0.00  0.68  0.00  0.07  0.00  0.00  0.00
  pipe9                   1.00   0.26  0.05  0.00  0.62  0.00  0.07  0.00  0.00  0.00
  outlet                  1.00   0.31  0.05  0.00  0.00  0.00  0.64  0.00  0.00  0.00
  
  
  *************************
  Conduit Surcharge Summary
  *************************
  
  ----------------------------------------------------------------------------
                                                           Hours        Hours 
                         --------- Hours Full --------   Above Full   Capacity
  Conduit                Both Ends  Upstream  Dnstream   Normal Flow   Limited
  ----------------------------------------------------------------------------
  pipe1                       3.80      3.80      3.91      0.06         0.01
  pipe2                       3.68      3.68      3.85      0.01         0.01
  pipe3                       3.53      3.53      3.76      0.01         0.01
  pipe4                       3.35      3.35      3.64      0.01         0.01
  pipe5                       3.13      3.13      3.50      0.01         0.01
  pipe6                       2.88      2.88      3.34      0.01         0.01
  pipe7                       2.60      2.60      3.17      0.01         0.01
  pipe8                       2.31      2.31      2.98      0.01         0.01
  pipe9                       0.01      0.01      2.77      0.01         0.01
  outlet                      0.01      0.01      2.56      0.01         0.01
  

  Analysis begun on:  Tue Nov 20 16:40:22 2018
  Analysis ended on:  Tue Nov 20 16:40:22 2018
  Total elapsed time: < 1 sec