
  EPA STORM WATER MANAGEMENT MODEL - VERSION 5.1 (Build 5.1.012)
  --------------------------------------------------------------

   Inverted syphon example from Vanslambrouck et al. (1986) 
  
  WARNING 04: minimum elevation drop used for Conduit syphon
  WARNING 04: minimum elevation drop used for Conduit syphon2
  
  *************
  Element Count
  *************
  Number of rain gages ...... 0
  Number of subcatchments ... 0
  Number of nodes ........... 8
  Number of links ........... 8
  Number of pollutants ...... 0
  Number of land uses ....... 0
  
  
  ************
  Node Summary
  ************
                                           Invert      Max.    Ponded    External
  Name                 Type                 Elev.     Depth      Area    Inflow  
  -------------------------------------------------------------------------------
  Inflow               JUNCTION             91.00      9.00       0.0    Yes
  K4.2                 JUNCTION             75.00     25.00       0.0    Yes
  213                  JUNCTION             90.00     10.00       0.0    Yes
  215                  JUNCTION             85.00     15.00       0.0    Yes
  217                  JUNCTION             75.00     25.00       0.0    Yes
  219                  JUNCTION             75.00     25.00       0.0    Yes
  Outfall              OUTFALL              84.00      3.00       0.0    Yes
  K4.3                 STORAGE              75.00     25.00       0.0    Yes
  
  
  ************
  Link Summary
  ************
  Name             From Node        To Node          Type            Length    %Slope Roughness
  ---------------------------------------------------------------------------------------------
  pipe1            Inflow           213              CONDUIT          200.0    0.5000    0.0140
  pipe2            215              Outfall          CONDUIT          100.0    1.0001    0.0140
  syphon           K4.3             K4.2             CONDUIT          100.0    0.0003    0.0140
  down1            213              K4.3             CONDUIT          100.0   15.1717    0.0140
  up1              K4.2             215              CONDUIT           24.0  -45.8349    0.0140
  down2            213              217              CONDUIT          100.0   15.1717    0.0140
  syphon2          217              219              CONDUIT          100.0    0.0003    0.0140
  up2              219              215              CONDUIT          100.0  -10.0504    0.0140
  
  
  *********************
  Cross Section Summary
  *********************
                                        Full     Full     Hyd.     Max.   No. of     Full
  Conduit          Shape               Depth     Area     Rad.    Width  Barrels     Flow
  ---------------------------------------------------------------------------------------
  pipe1            CIRCULAR             3.00     7.07     0.75     3.00        1    29.48
  pipe2            CIRCULAR             3.00     7.07     0.75     3.00        1    41.69
  syphon           RECT_CLOSED          1.20     2.40     0.37     2.00        3     0.16
  down1            CIRCULAR             2.00     3.14     0.50     2.00        1    55.07
  up1              CIRCULAR             2.00     3.14     0.50     2.00        1    95.72
  down2            CIRCULAR             2.00     3.14     0.50     2.00        1    55.07
  syphon2          RECT_CLOSED          1.20     2.40     0.37     2.00        1     0.16
  up2              CIRCULAR             2.00     3.14     0.50     2.00        1    44.82
  
  
  
  *********************************************************
  NOTE: The summary statistics displayed in this report are
  based on results found at every computational time step,  
  not just on results from each reporting time step.
  *********************************************************
  
  ****************
  Analysis Options
  ****************
  Flow Units ............... CMS
  Process Models:
    Rainfall/Runoff ........ NO
    RDII ................... NO
    Snowmelt ............... NO
    Groundwater ............ NO
    Flow Routing ........... YES
    Ponding Allowed ........ NO
    Water Quality .......... NO
  Flow Routing Method ...... DYNWAVE
  Starting Date ............ 01/01/1995 00:00:00
  Ending Date .............. 01/01/1995 01:00:00
  Antecedent Dry Days ...... 0.0
  Report Time Step ......... 00:00:30
  Routing Time Step ........ 30.00 sec
  Variable Time Step ....... YES
  Maximum Trials ........... 8
  Number of Threads ........ 1
  Head Tolerance ........... 0.001524 m
  
  
  **************************        Volume        Volume
  Flow Routing Continuity        hectare-m      10^6 ltr
  **************************     ---------     ---------
  Dry Weather Inflow .......         0.000         0.000
  Wet Weather Inflow .......         0.000         0.000
  Groundwater Inflow .......         0.000         0.000
  RDII Inflow ..............         0.000         0.000
  External Inflow ..........         7.082        70.825
  External Outflow .........         6.344        63.444
  Flooding Loss ............         0.000         0.000
  Evaporation Loss .........         0.000         0.000
  Exfiltration Loss ........         0.000         0.000
  Initial Stored Volume ....         0.000         0.000
  Final Stored Volume ......         0.294         2.940
  Continuity Error (%) .....         6.270
  
  
  *************************
  Highest Continuity Errors
  *************************
  Node K4.3 (11.27%)
  Node K4.2 (1.63%)
  Node 217 (1.46%)
  Node 219 (1.44%)
  
  
  ***************************
  Time-Step Critical Elements
  ***************************
  Link up1 (96.47%)
  Link down1 (1.24%)
  
  
  ********************************
  Highest Flow Instability Indexes
  ********************************
  Link syphon (2)
  
  
  *************************
  Routing Time Step Summary
  *************************
  Minimum Time Step           :     1.06 sec
  Average Time Step           :     2.35 sec
  Maximum Time Step           :    30.00 sec
  Percent in Steady State     :     0.00
  Average Iterations per Step :     2.92
  Percent Not Converging      :     5.88
  
  
  ******************
  Node Depth Summary
  ******************
  
  ---------------------------------------------------------------------------------
                                 Average  Maximum  Maximum  Time of Max    Reported
                                   Depth    Depth      HGL   Occurrence   Max Depth
  Node                 Type       Meters   Meters   Meters  days hr:min      Meters
  ---------------------------------------------------------------------------------
  Inflow               JUNCTION     2.03     2.19    93.19     0  00:39        2.19
  K4.2                 JUNCTION    11.54    12.00    87.00     0  00:31       12.00
  213                  JUNCTION     0.82     0.90    90.90     0  00:32        0.90
  215                  JUNCTION     1.56     1.72    86.72     0  00:31        1.72
  217                  JUNCTION    13.37    13.89    88.89     0  00:31       13.89
  219                  JUNCTION    12.01    12.33    87.33     0  00:31       12.33
  Outfall              OUTFALL      1.56     1.72    85.72     0  00:32        1.72
  K4.3                 STORAGE     11.79    12.31    87.31     0  00:31       12.31
  
  
  *******************
  Node Inflow Summary
  *******************
  
  -------------------------------------------------------------------------------------------------
                                  Maximum  Maximum                  Lateral       Total        Flow
                                  Lateral    Total  Time of Max      Inflow      Inflow     Balance
                                   Inflow   Inflow   Occurrence      Volume      Volume       Error
  Node                 Type           CMS      CMS  days hr:min    10^6 ltr    10^6 ltr     Percent
  -------------------------------------------------------------------------------------------------
  Inflow               JUNCTION    26.000   26.000     0  00:30        70.9        70.8       0.775
  K4.2                 JUNCTION     0.000   14.943     0  00:32           0        37.9       1.662
  213                  JUNCTION     0.000   26.000     0  00:39           0        70.3       0.495
  215                  JUNCTION     0.000   26.068     0  00:32           0        65.6       0.611
  217                  JUNCTION     0.000   11.125     0  00:32           0        30.8       1.479
  219                  JUNCTION     0.000   11.125     0  00:32           0        30.4       1.459
  Outfall              OUTFALL      0.000   26.082     0  00:32           0        63.4       0.000
  K4.3                 STORAGE      0.000   14.883     0  00:32           0        40.7      12.700
  
  
  **********************
  Node Surcharge Summary
  **********************
  
  Surcharging occurs when water rises above the top of the highest conduit.
  ---------------------------------------------------------------------
                                               Max. Height   Min. Depth
                                   Hours       Above Crown    Below Rim
  Node                 Type      Surcharged         Meters       Meters
  ---------------------------------------------------------------------
  K4.2                 JUNCTION        0.84          9.996       13.004
  217                  JUNCTION        0.88         11.892       11.108
  219                  JUNCTION        0.88         10.335       12.665
  
  
  *********************
  Node Flooding Summary
  *********************
  
  No nodes were flooded.
  
  
  **********************
  Storage Volume Summary
  **********************
  
  --------------------------------------------------------------------------------------------------
                         Average     Avg  Evap Exfil       Maximum     Max    Time of Max    Maximum
                          Volume    Pcnt  Pcnt  Pcnt        Volume    Pcnt     Occurrence    Outflow
  Storage Unit           1000 m3    Full  Loss  Loss       1000 m3    Full    days hr:min        CMS
  --------------------------------------------------------------------------------------------------
  K4.3                     0.000       0     0     0         0.000       0       0  00:00     14.943
  
  
  ***********************
  Outfall Loading Summary
  ***********************
  
  -----------------------------------------------------------
                         Flow       Avg       Max       Total
                         Freq      Flow      Flow      Volume
  Outfall Node           Pcnt       CMS       CMS    10^6 ltr
  -----------------------------------------------------------
  Outfall               98.43    23.175    26.082      63.443
  -----------------------------------------------------------
  System                98.43    23.175    26.082      63.443
  
  
  ********************
  Link Flow Summary
  ********************
  
  -----------------------------------------------------------------------------
                                 Maximum  Time of Max   Maximum    Max/    Max/
                                  |Flow|   Occurrence   |Veloc|    Full    Full
  Link                 Type          CMS  days hr:min     m/sec    Flow   Depth
  -----------------------------------------------------------------------------
  pipe1                CONDUIT    26.000     0  00:39      7.16    0.88    0.51
  pipe2                CONDUIT    26.082     0  00:32      6.22    0.63    0.57
  syphon               CONDUIT    14.943     0  00:32      2.08   32.00    1.00
  down1                CONDUIT    14.883     0  00:32      8.21    0.27    0.72
  up1                  CONDUIT    14.943     0  00:32      4.91    0.16    0.93
  down2                CONDUIT    11.125     0  00:32      6.30    0.20    0.72
  syphon2              CONDUIT    11.125     0  00:32      4.64   71.47    1.00
  up2                  CONDUIT    11.125     0  00:32      3.65    0.25    0.93
  
  
  ***************************
  Flow Classification Summary
  ***************************
  
  -------------------------------------------------------------------------------------
                      Adjusted    ---------- Fraction of Time in Flow Class ---------- 
                       /Actual         Up    Down  Sub   Sup   Up    Down  Norm  Inlet 
  Conduit               Length    Dry  Dry   Dry   Crit  Crit  Crit  Crit  Ltd   Ctrl  
  -------------------------------------------------------------------------------------
  pipe1                   1.00   0.00  0.00  0.00  0.00  1.00  0.00  0.00  0.78  0.00
  pipe2                   1.00   0.02  0.00  0.00  0.00  0.98  0.00  0.00  0.04  0.00
  syphon                  1.00   0.00  0.00  0.00  1.00  0.00  0.00  0.00  0.00  0.00
  down1                   1.00   0.00  0.00  0.00  0.04  0.96  0.00  0.00  0.20  0.00
  up1                     1.00   0.00  0.01  0.00  0.98  0.00  0.00  0.00  0.11  0.00
  down2                   1.00   0.00  0.00  0.00  0.06  0.94  0.00  0.00  0.21  0.00
  syphon2                 1.00   0.00  0.00  0.00  1.00  0.00  0.00  0.00  0.00  0.00
  up2                     1.00   0.00  0.01  0.00  0.96  0.03  0.00  0.00  0.00  0.00
  
  
  *************************
  Conduit Surcharge Summary
  *************************
  
  ----------------------------------------------------------------------------
                                                           Hours        Hours 
                         --------- Hours Full --------   Above Full   Capacity
  Conduit                Both Ends  Upstream  Dnstream   Normal Flow   Limited
  ----------------------------------------------------------------------------
  syphon                      0.87      0.87      0.87      0.94         0.76
  down1                       0.01      0.01      0.84      0.01         0.01
  up1                         0.01      0.01      0.84      0.01         0.01
  down2                       0.01      0.01      0.88      0.01         0.01
  syphon2                     0.90      0.90      0.90      0.97         0.90
  up2                         0.01      0.01      0.87      0.01         0.01
  

  Analysis begun on:  Tue Nov 20 16:40:26 2018
  Analysis ended on:  Tue Nov 20 16:40:26 2018
  Total elapsed time: < 1 sec