
  EPA STORM WATER MANAGEMENT MODEL - VERSION 5.1 (Build 5.1.012)
  --------------------------------------------------------------

  Example 1 
  
  
  *********************
  Rainfall File Summary
  *********************
  Station    First        Last         Recording   Periods    Periods    Periods
  ID         Date         Date         Frequency  w/Precip    Missing    Malfunc.
  -------------------------------------------------------------------------------
  *          01/06/1998   01/31/2000      60 min      1131          0          0

  
  *********************************************************
  NOTE: The summary statistics displayed in this report are
  based on results found at every computational time step,  
  not just on results from each reporting time step.
  *********************************************************
  
  ****************
  Analysis Options
  ****************
  Flow Units ............... CFS
  Process Models:
    Rainfall/Runoff ........ YES
    RDII ................... NO
    Snowmelt ............... NO
    Groundwater ............ NO
    Flow Routing ........... YES
    Ponding Allowed ........ NO
    Water Quality .......... YES
  Infiltration Method ...... HORTON
  Flow Routing Method ...... DYNWAVE
  Starting Date ............ 01/01/1998 00:00:00
  Ending Date .............. 02/23/1998 12:00:00
  Antecedent Dry Days ...... 5.0
  Report Time Step ......... 00:15:00
  Wet Time Step ............ 00:15:00
  Dry Time Step ............ 01:00:00
  Routing Time Step ........ 10.00 sec
  Variable Time Step ....... NO
  Maximum Trials ........... 8
  Number of Threads ........ 1
  Head Tolerance ........... 0.005000 ft
  
  
  **************************        Volume         Depth
  Runoff Quantity Continuity     acre-feet        inches
  **************************     ---------       -------
  Total Precipitation ......        71.118        12.020
  Evaporation Loss .........         0.000         0.000
  Infiltration Loss ........        45.901         7.758
  Surface Runoff ...........        25.219         4.262
  Final Storage ............         0.082         0.014
  Continuity Error (%) .....        -0.118
  
  
  **************************           TSS          Lead
  Runoff Quality Continuity            lbs           lbs
  **************************    ----------    ----------
  Initial Buildup ..........      3433.036         0.000
  Surface Buildup ..........      3647.840         0.550
  Wet Deposition ...........         0.000         0.000
  Sweeping Removal .........         0.000         0.000
  Infiltration Loss ........         0.000         0.000
  BMP Removal ..............         0.000         0.000
  Surface Runoff ...........      2752.174         0.550
  Remaining Buildup ........      4328.702         0.000
  Continuity Error (%) .....         0.000         0.000
  
  
  **************************        Volume        Volume
  Flow Routing Continuity        acre-feet      10^6 gal
  **************************     ---------     ---------
  Dry Weather Inflow .......         0.000         0.000
  Wet Weather Inflow .......        13.709         4.467
  Groundwater Inflow .......         0.000         0.000
  RDII Inflow ..............         0.000         0.000
  External Inflow ..........         0.000         0.000
  External Outflow .........        13.706         4.466
  Flooding Loss ............         0.000         0.000
  Evaporation Loss .........         0.000         0.000
  Exfiltration Loss ........         0.000         0.000
  Initial Stored Volume ....         0.000         0.000
  Final Stored Volume ......         0.002         0.001
  Continuity Error (%) .....         0.004
  
  
  **************************           TSS          Lead
  Quality Routing Continuity           lbs           lbs
  **************************    ----------    ----------
  Dry Weather Inflow .......         0.000         0.000
  Wet Weather Inflow .......      1435.108         0.287
  Groundwater Inflow .......         0.000         0.000
  RDII Inflow ..............         0.000         0.000
  External Inflow ..........         0.000         0.000
  External Outflow .........      1433.443         0.287
  Flooding Loss ............         0.000         0.000
  Exfiltration Loss ........         0.000         0.000
  Mass Reacted .............         0.000         0.000
  Initial Stored Mass ......         0.000         0.000
  Final Stored Mass ........         0.004         0.000
  Continuity Error (%) .....         0.116         0.116
  
  
  ********************************
  Highest Flow Instability Indexes
  ********************************
  All links are stable.
  
  
  *************************
  Routing Time Step Summary
  *************************
  Minimum Time Step           :    10.00 sec
  Average Time Step           :    10.00 sec
  Maximum Time Step           :    10.00 sec
  Percent in Steady State     :    81.31
  Average Iterations per Step :     2.00
  Percent Not Converging      :     0.00
  
  
  ***************************
  Subcatchment Runoff Summary
  ***************************
  
  --------------------------------------------------------------------------------------------------------
                            Total      Total      Total      Total      Total       Total     Peak  Runoff
                           Precip      Runon       Evap      Infil     Runoff      Runoff   Runoff   Coeff
  Subcatchment                 in         in         in         in         in    10^6 gal      CFS
  --------------------------------------------------------------------------------------------------------
  1                         12.02       0.00       0.00       5.99       6.03        1.64     2.60   0.502
  2                         12.02       0.00       0.00       6.00       6.02        1.63     2.57   0.501
  3                         12.02       0.00       0.00       5.99       6.03        0.82     1.31   0.502
  4                         12.02       0.00       0.00       5.99       6.03        0.82     1.31   0.502
  5                         12.02       0.00       0.00       6.00       6.01        2.45     3.83   0.500
  6                         12.02       0.00       0.00      10.81       1.21        0.39     0.65   0.101
  7                         12.02       0.00       0.00      10.79       1.23        0.13     0.25   0.102
  8                         12.02       0.00       0.00      10.81       1.21        0.33     0.55   0.101
  
  
  ****************************
  Subcatchment Washoff Summary
  ****************************
  
  ------------------------------------------------
                                 TSS          Lead
  Subcatchment                   lbs           lbs
  ------------------------------------------------
  1                          247.965         0.050
  2                          667.419         0.133
  3                          124.224         0.025
  4                          332.651         0.067
  5                          370.502         0.074
  6                          465.225         0.093
  7                          156.323         0.031
  8                          387.865         0.078
  ------------------------------------------------
  System                    2752.174         0.550
  
  
  ******************
  Node Depth Summary
  ******************
  
  ---------------------------------------------------------------------------------
                                 Average  Maximum  Maximum  Time of Max    Reported
                                   Depth    Depth      HGL   Occurrence   Max Depth
  Node                 Type         Feet     Feet     Feet  days hr:min        Feet
  ---------------------------------------------------------------------------------
  9                    JUNCTION     0.05     0.42  1000.42     6  21:00        0.42
  10                   JUNCTION     0.09     1.54   996.54     6  21:01        1.50
  13                   JUNCTION     0.04     0.30   995.30     6  21:00        0.30
  14                   JUNCTION     0.04     0.34   990.34     6  21:00        0.34
  15                   JUNCTION     0.09     0.78   987.78     6  21:00        0.78
  16                   JUNCTION     0.11     0.88   985.88     6  21:00        0.88
  17                   JUNCTION     0.11     0.85   980.85     6  21:01        0.85
  19                   JUNCTION     0.02     0.13  1010.13     6  21:00        0.13
  20                   JUNCTION     0.01     0.10  1005.10     6  21:00        0.10
  21                   JUNCTION     1.05     1.58   991.58     6  21:01        1.57
  22                   JUNCTION     0.09     0.72   987.72     6  21:00        0.72
  23                   JUNCTION     0.03     0.23   990.23     6  21:00        0.23
  24                   JUNCTION     0.11     0.91   984.91     6  21:01        0.91
  18                   OUTFALL      0.10     0.85   975.85     6  21:01        0.85
  
  
  *******************
  Node Inflow Summary
  *******************
  
  -------------------------------------------------------------------------------------------------
                                  Maximum  Maximum                  Lateral       Total        Flow
                                  Lateral    Total  Time of Max      Inflow      Inflow     Balance
                                   Inflow   Inflow   Occurrence      Volume      Volume       Error
  Node                 Type           CFS      CFS  days hr:min    10^6 gal    10^6 gal     Percent
  -------------------------------------------------------------------------------------------------
  9                    JUNCTION      2.60     2.60     6  21:00       0.891       0.895      -0.013
  10                   JUNCTION      2.57     5.17     6  21:00       0.888        1.79      -0.012
  13                   JUNCTION      1.31     1.31     6  21:00       0.445       0.446      -0.070
  14                   JUNCTION      0.00     1.31     6  21:00           0       0.446       0.052
  15                   JUNCTION      3.83     5.13     6  21:00        1.33        1.79      -0.017
  16                   JUNCTION      0.00    11.73     6  21:00           0        4.09      -0.007
  17                   JUNCTION      0.00    12.38     6  21:01           0        4.31      -0.001
  19                   JUNCTION      0.25     0.25     6  21:00      0.0734      0.0735       0.003
  20                   JUNCTION      0.00     0.25     6  21:00           0      0.0735      -0.002
  21                   JUNCTION      0.00     5.32     6  21:01           0        1.86      -0.006
  22                   JUNCTION      1.31     6.61     6  21:00       0.445        2.31       0.011
  23                   JUNCTION      0.65     0.65     6  21:00       0.215       0.216      -0.042
  24                   JUNCTION      0.00    12.38     6  21:00           0        4.31      -0.012
  18                   OUTFALL       0.55    12.92     6  21:01        0.18        4.49       0.000
  
  
  **********************
  Node Surcharge Summary
  **********************
  
  Surcharging occurs when water rises above the top of the highest conduit.
  ---------------------------------------------------------------------
                                               Max. Height   Min. Depth
                                   Hours       Above Crown    Below Rim
  Node                 Type      Surcharged           Feet         Feet
  ---------------------------------------------------------------------
  10                   JUNCTION        0.05          0.035        1.465
  
  
  *********************
  Node Flooding Summary
  *********************
  
  No nodes were flooded.
  
  
  ***********************
  Outfall Loading Summary
  ***********************
  
  ---------------------------------------------------------------------------------------
                         Flow       Avg       Max       Total         Total         Total
                         Freq      Flow      Flow      Volume           TSS          Lead
  Outfall Node           Pcnt       CFS       CFS    10^6 gal           lbs           lbs
  ---------------------------------------------------------------------------------------
  18                    61.32      1.03     12.92       4.488      1433.443         0.287
  ---------------------------------------------------------------------------------------
  System                61.32      1.03     12.92       4.488      1433.443         0.287
  
  
  ********************
  Link Flow Summary
  ********************
  
  -----------------------------------------------------------------------------
                                 Maximum  Time of Max   Maximum    Max/    Max/
                                  |Flow|   Occurrence   |Veloc|    Full    Full
  Link                 Type          CFS  days hr:min    ft/sec    Flow   Depth
  -----------------------------------------------------------------------------
  1                    CONDUIT      2.60     6  21:00      3.60    0.17    0.64
  4                    CONDUIT      0.25     6  21:00      4.97    0.03    0.11
  5                    CONDUIT      0.25     6  21:00      0.63    0.02    0.55
  6                    CONDUIT      5.07     6  21:01      6.79    1.10    0.96
  7                    CONDUIT      5.32     6  21:02      7.10    0.18    0.29
  8                    CONDUIT      6.60     6  21:00      5.67    0.28    0.40
  10                   CONDUIT     12.38     6  21:01      9.72    0.38    0.43
  11                   CONDUIT      1.31     6  21:00      4.81    0.09    0.21
  12                   CONDUIT      1.31     6  21:00      2.23    0.11    0.37
  13                   CONDUIT      5.13     6  21:00      5.13    0.53    0.55
  14                   CONDUIT      0.65     6  21:00      2.32    0.12    0.57
  15                   CONDUIT     11.73     6  21:00      8.59    0.40    0.45
  16                   CONDUIT     12.38     6  21:01      9.28    0.42    0.44
  
  
  ***************************
  Flow Classification Summary
  ***************************
  
  -------------------------------------------------------------------------------------
                      Adjusted    ---------- Fraction of Time in Flow Class ---------- 
                       /Actual         Up    Down  Sub   Sup   Up    Down  Norm  Inlet 
  Conduit               Length    Dry  Dry   Dry   Crit  Crit  Crit  Crit  Ltd   Ctrl  
  -------------------------------------------------------------------------------------
  1                       1.00   0.01  0.00  0.00  0.68  0.31  0.00  0.00  0.89  0.00
  4                       1.00   0.02  0.00  0.00  0.59  0.39  0.00  0.00  0.01  0.00
  5                       1.00   0.01  0.53  0.00  0.46  0.00  0.00  0.00  0.89  0.00
  6                       1.00   0.01  0.00  0.00  0.32  0.23  0.00  0.44  0.02  0.00
  7                       1.00   0.02  0.00  0.00  0.00  0.00  0.00  0.98  0.00  0.00
  8                       1.00   0.01  0.00  0.00  0.63  0.36  0.00  0.00  0.89  0.00
  10                      1.00   0.01  0.00  0.00  0.21  0.78  0.00  0.00  0.03  0.00
  11                      1.00   0.01  0.00  0.00  0.59  0.40  0.00  0.00  0.86  0.00
  12                      1.00   0.01  0.11  0.00  0.88  0.00  0.00  0.00  0.89  0.00
  13                      1.00   0.01  0.00  0.00  0.65  0.34  0.00  0.00  0.14  0.00
  14                      1.00   0.01  0.06  0.00  0.92  0.01  0.00  0.00  0.79  0.00
  15                      1.00   0.01  0.00  0.00  0.45  0.54  0.00  0.00  0.85  0.00
  16                      1.00   0.01  0.00  0.00  0.48  0.51  0.00  0.00  0.80  0.00
  
  
  *************************
  Conduit Surcharge Summary
  *************************
  
  ----------------------------------------------------------------------------
                                                           Hours        Hours 
                         --------- Hours Full --------   Above Full   Capacity
  Conduit                Both Ends  Upstream  Dnstream   Normal Flow   Limited
  ----------------------------------------------------------------------------
  1                           0.01      0.01      0.05      0.01         0.01
  5                           0.01      0.01   1136.75      0.01         0.01
  6                           0.01      0.51      0.01      0.90         0.01
  
  
  ***************************
  Link Pollutant Load Summary
  ***************************
  
  ------------------------------------------------
                                 TSS          Lead
  Link                           lbs           lbs
  ------------------------------------------------
  1                          131.878         0.026
  4                           81.337         0.016
  5                           79.847         0.016
  6                          476.251         0.095
  7                          555.679         0.111
  8                          727.899         0.146
  10                        1231.943         0.246
  11                          65.975         0.013
  12                          66.023         0.013
  13                         262.762         0.053
  14                         241.423         0.048
  15                         990.242         0.198
  16                        1231.840         0.246
  

  Analysis begun on:  Tue Nov 20 16:40:18 2018
  Analysis ended on:  Tue Nov 20 16:40:20 2018
  Total elapsed time: 00:00:02