
  EPA STORM WATER MANAGEMENT MODEL - VERSION 5.1 (Build 5.1.012)
  --------------------------------------------------------------

    Input and Output FilesSW 1 0 20 
    Input and Output FilesSW 1 0 20 
  
  WARNING 03: negative offset ignored for Link One_Weir
  
  *************
  Element Count
  *************
  Number of rain gages ...... 0
  Number of subcatchments ... 0
  Number of nodes ........... 61
  Number of links ........... 58
  Number of pollutants ...... 1
  Number of land uses ....... 0
  
  
  *****************
  Pollutant Summary
  *****************
                               Ppt.      GW         Kdecay
  Name                 Units   Concen.   Concen.    1/days    CoPollutant
  -----------------------------------------------------------------------
  SPILL                 MG/L      0.00      0.00      0.00
  
  
  ************
  Node Summary
  ************
                                           Invert      Max.    Ponded    External
  Name                 Type                 Elev.     Depth      Area    Inflow  
  -------------------------------------------------------------------------------
  10309                JUNCTION            101.60      9.40       0.0
  10309a               JUNCTION            101.60      9.40       0.0
  10309b               JUNCTION            101.60      9.40       0.0
  10309c               JUNCTION            101.60      9.40       0.0
  10309d               JUNCTION            101.60      9.40       0.0
  10309e               JUNCTION            101.60      9.40       0.0
  15009                JUNCTION            111.50     13.50       0.0
  15009a               JUNCTION            111.50     13.50       0.0
  15009b               JUNCTION            111.50     13.50       0.0
  15009c               JUNCTION            111.50     13.50       0.0
  15009d               JUNCTION            111.50     13.50       0.0
  15009e               JUNCTION            121.00     13.50       0.0
  16009                JUNCTION            102.00     18.00       0.0
  16009a               JUNCTION            102.00     18.00       0.0
  16009b               JUNCTION            102.00     18.00       0.0
  16009c               JUNCTION            102.00     18.00       0.0
  16009d               JUNCTION            102.00     18.00       0.0
  16009e               JUNCTION            102.00     18.00       0.0
  16109                JUNCTION            102.80     22.20       0.0    Yes
  16109a               JUNCTION            102.80     22.20       0.0
  16109b               JUNCTION            102.80     22.20       0.0
  16109c               JUNCTION            102.80     22.20       0.0
  16109d               JUNCTION            102.80     22.20       0.0
  16109e               JUNCTION            102.80     22.20       0.0
  80408                JUNCTION            120.00     13.40      10.0    Yes
  80408b               JUNCTION            124.60     13.40       0.0    Yes
  80408c               JUNCTION            124.60     13.40       0.0    Yes
  80408d               JUNCTION            124.60     13.40       0.0    Yes
  80408e               JUNCTION            124.60     13.40       0.0    Yes
  80608                JUNCTION            118.30     16.70       0.0
  80608a               JUNCTION            118.30     16.70       0.0
  80608b               JUNCTION            118.30     16.70       0.0
  80608c               JUNCTION            118.30     16.70       0.0
  80608d               JUNCTION            118.30     16.70       0.0
  80608e               JUNCTION            118.30     16.70       0.0
  81009                JUNCTION            128.20      8.80       0.0    Yes
  81009a               JUNCTION            128.20      8.80       0.0    Yes
  81009b               JUNCTION            128.20      8.80       0.0    Yes
  81009c               JUNCTION            128.20      8.80       0.0    Yes
  81009d               JUNCTION            128.20      8.80       0.0    Yes
  81009e               JUNCTION            128.20      8.80       0.0    Yes
  81309                JUNCTION            117.50     12.50       0.0
  81309a               JUNCTION            117.50     12.50       0.0
  81309b               JUNCTION            117.50     12.50       0.0
  81309c               JUNCTION            117.50     12.50       0.0
  81309d               JUNCTION            117.50     12.50       0.0
  81309e               JUNCTION            117.50     12.50       0.0
  82308d               JUNCTION            112.30     42.70       0.0
  82309                JUNCTION            112.30     42.70       0.0    Yes
  82309a               JUNCTION            112.30     42.70       0.0    Yes
  82309b               JUNCTION            112.30     42.70       0.0    Yes
  Up                   JUNCTION            112.30     42.70       0.0    Yes
  82309e               JUNCTION            112.30     21.00       0.0    Yes
  80408a               JUNCTION            124.60      6.00       0.0    Yes
  10208                OUTFALL              89.90      9.00       0.0
  10208b               OUTFALL              89.90      9.00       0.0
  10208c               OUTFALL              89.90      9.00       0.0
  10208d               OUTFALL              89.90      9.00       0.0
  10208e               OUTFALL              89.90      9.00       0.0
  10208a               OUTFALL              89.90      9.00       0.0
  82309d               STORAGE             112.30     42.70       0.0    Yes
  
  
  ************
  Link Summary
  ************
  Name             From Node        To Node          Type            Length    %Slope Roughness
  ---------------------------------------------------------------------------------------------
  1030e            10309e           10208e           CONDUIT         4500.0    0.2600    0.0160
  1030             10309            10208            CONDUIT         4500.0    0.2600    0.2000
  1030a            10309a           10208a           CONDUIT         4500.0    0.2600    0.0160
  1030b            10309b           10208b           CONDUIT         4500.0    0.2600    0.0160
  1030c            10309c           10208c           CONDUIT         4500.0    0.2600    0.0160
  1030d            10309d           10208d           CONDUIT         4500.0    0.2600    0.0160
  1570             15009            16009            CONDUIT         5000.0    0.1900    0.0154
  1570a            15009a           16009a           CONDUIT         5000.0    0.1900    0.0154
  1570b            15009b           16009b           CONDUIT         5000.0    0.1900    0.0154
  1570c            15009c           16009c           CONDUIT          100.0    9.5432    0.0154
  1570d            15009d           16009d           CONDUIT         5000.0    0.1900    0.0154
  1570e            15009e           16009e           CONDUIT         5000.0    0.3800    0.0154
  1600             16009            16109            CONDUIT          500.0   -0.1600    0.0150
  1600a            16009a           16109a           CONDUIT          500.0   -0.1600    0.0150
  1600b            16009b           16109b           CONDUIT          500.0   -0.1600    0.0150
  1600c            16009c           16109c           CONDUIT          500.0   -0.1600    0.0150
  1600d            16009d           16109d           CONDUIT          500.0   -0.1600    0.0150
  1600e            16009e           16109e           CONDUIT          500.0   -0.1600    0.0150
  1602             82309            16109            CONDUIT         5000.0    0.1900    0.0340
  1602a            82309a           16109a           CONDUIT         5000.0    0.1900    0.0340
  1602b            82309b           16109b           CONDUIT         5000.0    0.1900    0.0340
  1602c            Up               16109c           CONDUIT         5000.0    0.1900    0.0340
  1602d            82309d           16109d           CONDUIT         5000.0    0.1900    0.0340
  1602e            82309e           16109e           CONDUIT         5000.0    0.1900    0.0340
  1630             16009            10309            CONDUIT          300.0    0.1333    0.0150
  1630a            16009a           10309a           CONDUIT          300.0    0.1333    0.0150
  1630b            16009b           10309b           CONDUIT          300.0    0.1333    0.0150
  1630c            16009c           10309c           CONDUIT          300.0    0.1333    0.0150
  1630d            16009d           10309d           CONDUIT          300.0    0.1333    0.0150
  1630e            16009e           10309e           CONDUIT          300.0    0.1333    0.0150
  8040             80408            80608            CONDUIT         1800.0    0.0944    0.0150
  8040a            80408a           80608a           CONDUIT         1800.0    0.3500    0.0300
  8040b            80408b           80608b           CONDUIT         1800.0    0.3500    0.0150
  8040c            80408c           80608c           CONDUIT         1800.0    0.3500    0.0150
  8040d            80408d           80608d           CONDUIT         1800.0    0.3500    0.0150
  8040e            80408e           80608e           CONDUIT         1800.0    0.3500    0.0150
  8060             80608            82309            CONDUIT         2075.0    0.1831    0.0150
  8060a            80608a           82309a           CONDUIT         2075.0    0.1831    0.0150
  8060b            80608b           82309b           CONDUIT         2075.0    0.1831    0.0150
  8060c            80608c           Up               CONDUIT         2075.0    0.1831    0.0150
  8060d            80608d           82309d           CONDUIT         2075.0    0.1831    0.0150
  8060e            80608e           82309e           CONDUIT         2075.0    0.1831    0.0150
  8100             81009            81309            CONDUIT         5100.0    0.2098    0.0150
  8100a            81009a           81309a           CONDUIT         5100.0    0.2098    0.0150
  8100b            81009b           81309b           CONDUIT         5100.0    0.2098    0.0150
  8100c            81009c           81309c           CONDUIT         5100.0    0.2098    0.0150
  8100d            81009d           81309d           CONDUIT         5100.0    0.2098    0.0150
  8100e            81009e           81309e           CONDUIT         5100.0    0.2098    0.0150
  8130             81309            15009            CONDUIT         3500.0    0.1714    0.0150
  8130a            81309a           15009a           CONDUIT         3500.0    0.1714    0.0150
  8130b            81309b           15009b           CONDUIT         3500.0    0.1714    0.0150
  8130c            81309c           15009c           CONDUIT         3500.0    0.1714    0.0150
  8130d            81309d           15009d           CONDUIT         3500.0    0.1714    0.0150
  8130e            81309e           15009e           CONDUIT         3500.0   -0.1000    0.0150
  PUMP1@82309e-15009e 82309e           15009e           TYPE3 PUMP  
  OR1@82309d-82308d 82309d           82308d           ORIFICE     
  OR1@82309b-15009b 82309b           15009b           ORIFICE     
  One_Weir         Up               15009c           WEIR        
  
  
  *********************
  Cross Section Summary
  *********************
                                        Full     Full     Hyd.     Max.   No. of     Full
  Conduit          Shape               Depth     Area     Rad.    Width  Barrels     Flow
  ---------------------------------------------------------------------------------------
  1030e            TRIANGULAR           9.00   243.00     4.27    54.00        1  3028.41
  1030             TRIANGULAR           9.00   243.00     4.27    54.00        1   242.27
  1030a            TRIANGULAR           9.00   243.00     4.27    54.00        1  3028.41
  1030b            TRIANGULAR           9.00   243.00     4.27    54.00        1  3028.41
  1030c            TRIANGULAR           9.00   243.00     4.27    54.00        1  3028.41
  1030d            TRIANGULAR           9.00   243.00     4.27    54.00        1  3028.41
  1570             CIRCULAR             5.50    23.76     1.38     5.50        1   123.56
  1570a            CIRCULAR             5.50    23.76     1.38     5.50        1   123.56
  1570b            CIRCULAR             5.50    23.76     1.38     5.50        1   123.56
  1570c            CIRCULAR             5.50    23.76     1.38     5.50        1   875.71
  1570d            CIRCULAR             5.50    23.76     1.38     5.50        1   123.56
  1570e            CIRCULAR             5.50    23.76     1.38     5.50        1   174.75
  1600             CIRCULAR             6.00    28.27     1.50     6.00        1   146.82
  1600a            CIRCULAR             6.00    28.27     1.50     6.00        1   146.82
  1600b            CIRCULAR             6.00    28.27     1.50     6.00        1   146.82
  1600c            CIRCULAR             6.00    28.27     1.50     6.00        1   146.82
  1600d            CIRCULAR             6.00    28.27     1.50     6.00        1   146.82
  1600e            CIRCULAR             6.00    28.27     1.50     6.00        1   146.82
  1602             CIRCULAR             5.00    19.63     1.25     5.00        1    43.41
  1602a            CIRCULAR             5.00    19.63     1.25     5.00        1    43.41
  1602b            CIRCULAR             5.00    19.63     1.25     5.00        1    43.41
  1602c            CIRCULAR             5.00    19.63     1.25     5.00        1    43.41
  1602d            CIRCULAR             5.00    19.63     1.25     5.00        1    43.41
  1602e            CIRCULAR             5.00    19.63     1.25     5.00        1    43.41
  1630             TRIANGULAR           9.00   243.00     4.27    54.00        1  2313.27
  1630a            TRIANGULAR           9.00   243.00     4.27    54.00        1  2313.27
  1630b            TRIANGULAR           9.00   243.00     4.27    54.00        1  2313.27
  1630c            TRIANGULAR           9.00   243.00     4.27    54.00        1  2313.27
  1630d            TRIANGULAR           9.00   243.00     4.27    54.00        1  2313.27
  1630e            TRIANGULAR           9.00   243.00     4.27    54.00        1  2313.27
  8040             FORCE_MAIN           4.00    12.57     1.00     4.00        1    46.98
  8040a            CIRCULAR             4.00    12.57     1.00     4.00        1    36.83
  8040b            CIRCULAR             4.00    12.57     1.00     4.00        1    73.65
  8040c            CIRCULAR             4.00    12.57     1.00     4.00        1    73.65
  8040d            CIRCULAR             4.00    12.57     1.00     4.00        1    73.65
  8040e            CIRCULAR             4.00    12.57     1.00     4.00        1    73.65
  8060             CIRCULAR             4.00    12.57     1.00     4.00        1    53.27
  8060a            CIRCULAR             4.00    12.57     1.00     4.00        1    53.27
  8060b            CIRCULAR             4.00    12.57     1.00     4.00        1    53.27
  8060c            CIRCULAR             4.00    12.57     1.00     4.00        1    53.27
  8060d            CIRCULAR             4.00    12.57     1.00     4.00        1    53.27
  8060e            CIRCULAR             4.00    12.57     1.00     4.00        1    53.27
  8100             CIRCULAR             4.00    12.57     1.00     4.00        1    57.02
  8100a            CIRCULAR             4.50    15.90     1.13     4.50        1    78.06
  8100b            CIRCULAR             4.50    15.90     1.13     4.50        1    78.06
  8100c            CIRCULAR             4.50    15.90     1.13     4.50        1    78.06
  8100d            CIRCULAR             4.50    15.90     1.13     4.50        1    78.06
  8100e            CIRCULAR             4.50    15.90     1.13     4.50        1    78.06
  8130             CIRCULAR             4.50    15.90     1.13     4.50        1    70.56
  8130a            CIRCULAR             4.50    15.90     1.13     4.50        1    70.56
  8130b            CIRCULAR             4.50    15.90     1.13     4.50        1    70.56
  8130c            CIRCULAR             4.50    15.90     1.13     4.50        1    70.56
  8130d            CIRCULAR             4.50    15.90     1.13     4.50        1    70.56
  8130e            CIRCULAR             4.50    15.90     1.13     4.50        1    53.89
  
  
  
  *********************************************************
  NOTE: The summary statistics displayed in this report are
  based on results found at every computational time step,  
  not just on results from each reporting time step.
  *********************************************************
  
  ****************
  Analysis Options
  ****************
  Flow Units ............... CFS
  Process Models:
    Rainfall/Runoff ........ NO
    RDII ................... NO
    Snowmelt ............... NO
    Groundwater ............ NO
    Flow Routing ........... YES
    Ponding Allowed ........ YES
    Water Quality .......... YES
  Flow Routing Method ...... DYNWAVE
  Starting Date ............ 01/01/1988 00:00:00
  Ending Date .............. 01/01/1988 08:00:00
  Antecedent Dry Days ...... 0.0
  Report Time Step ......... 00:00:10
  Routing Time Step ........ 10.00 sec
  Variable Time Step ....... YES
  Maximum Trials ........... 8
  Number of Threads ........ 1
  Head Tolerance ........... 0.001000 ft
  
  
  *********************
  Control Actions Taken
  *********************
   01/01/1988: 00:00:00 Link PUMP1@82309e-15009e setting changed to   0.50 by Control Pump1

  
  **************************        Volume        Volume
  Flow Routing Continuity        acre-feet      10^6 gal
  **************************     ---------     ---------
  Dry Weather Inflow .......        26.444         8.617
  Wet Weather Inflow .......         0.000         0.000
  Groundwater Inflow .......         0.000         0.000
  RDII Inflow ..............         0.000         0.000
  External Inflow ..........       195.901        63.837
  External Outflow .........       188.842        61.537
  Flooding Loss ............        20.056         6.535
  Evaporation Loss .........         0.128         0.042
  Exfiltration Loss ........         0.000         0.000
  Initial Stored Volume ....         0.094         0.031
  Final Stored Volume ......        14.841         4.836
  Continuity Error (%) .....        -0.641
  
  
  **************************         SPILL
  Quality Routing Continuity           lbs
  **************************    ----------
  Dry Weather Inflow .......         0.000
  Wet Weather Inflow .......         0.000
  Groundwater Inflow .......         0.000
  RDII Inflow ..............         0.000
  External Inflow ..........        23.792
  External Outflow .........        11.077
  Flooding Loss ............        11.320
  Exfiltration Loss ........         0.000
  Mass Reacted .............         0.000
  Initial Stored Mass ......         0.000
  Final Stored Mass ........         1.568
  Continuity Error (%) .....        -0.728
  
  
  *************************
  Highest Continuity Errors
  *************************
  Node 10309 (14.02%)
  Node 81309e (11.12%)
  Node 16009 (5.15%)
  Node 80608a (2.85%)
  Node 82309a (2.57%)
  
  
  ***************************
  Time-Step Critical Elements
  ***************************
  Link 1600 (2.24%)
  
  
  ********************************
  Highest Flow Instability Indexes
  ********************************
  Link OR1@82309d-82308d (81)
  Link 8040c (28)
  Link 8040b (22)
  Link 1600 (14)
  Link 1630 (14)
  
  
  *************************
  Routing Time Step Summary
  *************************
  Minimum Time Step           :     0.59 sec
  Average Time Step           :     9.93 sec
  Maximum Time Step           :    10.00 sec
  Percent in Steady State     :    -0.00
  Average Iterations per Step :     5.73
  Percent Not Converging      :    42.36
  
  
  ******************
  Node Depth Summary
  ******************
  
  ---------------------------------------------------------------------------------
                                 Average  Maximum  Maximum  Time of Max    Reported
                                   Depth    Depth      HGL   Occurrence   Max Depth
  Node                 Type         Feet     Feet     Feet  days hr:min        Feet
  ---------------------------------------------------------------------------------
  10309                JUNCTION     6.64     9.40   111.00     0  02:58        9.40
  10309a               JUNCTION     1.81     2.67   104.27     0  01:51        2.67
  10309b               JUNCTION     1.48     2.86   104.46     0  02:05        2.86
  10309c               JUNCTION     1.47     2.83   104.43     0  03:00        2.83
  10309d               JUNCTION     1.58     2.75   104.35     0  03:06        2.75
  10309e               JUNCTION     1.39     2.67   104.27     0  03:01        2.67
  15009                JUNCTION     1.13     2.45   113.95     0  01:29        2.45
  15009a               JUNCTION     1.13     2.45   113.95     0  01:35        2.45
  15009b               JUNCTION     1.32     2.99   114.49     0  01:51        2.99
  15009c               JUNCTION     0.46     0.98   112.48     0  03:00        0.98
  15009d               JUNCTION     1.13     2.45   113.95     0  01:35        2.45
  15009e               JUNCTION     0.94     2.07   123.07     0  03:00        2.07
  16009                JUNCTION     6.30     9.07   111.07     0  02:58        9.05
  16009a               JUNCTION     1.96     2.86   104.86     0  01:43        2.86
  16009b               JUNCTION     1.56     3.06   105.06     0  01:58        3.06
  16009c               JUNCTION     1.54     3.02   105.02     0  03:00        3.02
  16009d               JUNCTION     1.67     2.94   104.94     0  03:03        2.94
  16009e               JUNCTION     1.47     2.86   104.86     0  03:00        2.86
  16109                JUNCTION     5.69     8.43   111.23     0  02:58        8.42
  16109a               JUNCTION     1.91     2.75   105.55     0  01:51        2.75
  16109b               JUNCTION     1.26     2.94   105.74     0  01:12        2.94
  16109c               JUNCTION     1.33     2.96   105.76     0  03:00        2.96
  16109d               JUNCTION     1.56     2.96   105.76     0  03:01        2.96
  16109e               JUNCTION     1.18     2.71   105.51     0  03:00        2.71
  80408                JUNCTION     7.59    18.60   138.60     0  00:31       18.60
  80408b               JUNCTION     3.35    13.40   138.00     0  00:38       13.40
  80408c               JUNCTION     4.01    13.40   138.00     0  00:41       13.40
  80408d               JUNCTION     3.26    12.75   137.35     0  02:11       12.75
  80408e               JUNCTION     0.85     2.82   127.42     0  03:00        2.82
  80608                JUNCTION     7.08    16.70   135.00     0  00:26       16.70
  80608a               JUNCTION     4.51    16.70   135.00     0  00:33       16.70
  80608b               JUNCTION     4.77    16.70   135.00     0  00:36       16.70
  80608c               JUNCTION     5.42    16.70   135.00     0  00:37       16.70
  80608d               JUNCTION     5.06    16.70   135.00     0  02:11       16.70
  80608e               JUNCTION     2.44    10.50   128.80     0  01:12        9.67
  81009                JUNCTION     1.22     3.24   131.44     0  00:33        3.24
  81009a               JUNCTION     1.11     2.84   131.04     0  00:31        2.84
  81009b               JUNCTION     1.11     2.84   131.04     0  00:31        2.84
  81009c               JUNCTION     1.11     2.85   131.05     0  00:31        2.85
  81009d               JUNCTION     1.11     2.84   131.04     0  00:31        2.84
  81009e               JUNCTION     1.28     3.14   131.34     0  03:00        3.14
  81309                JUNCTION     1.31     3.15   120.65     0  00:57        3.15
  81309a               JUNCTION     1.32     3.10   120.60     0  01:01        3.10
  81309b               JUNCTION     1.27     3.09   120.59     0  01:01        3.09
  81309c               JUNCTION     1.48     3.32   120.82     0  03:00        3.32
  81309d               JUNCTION     1.32     3.10   120.60     0  01:01        3.10
  81309e               JUNCTION     5.64    12.50   130.00     0  00:39       12.50
  82308d               JUNCTION     7.49    21.34   133.64     0  03:00       21.32
  82309                JUNCTION     9.32    31.93   144.23     0  00:26       28.20
  82309a               JUNCTION     7.27    34.41   146.71     0  00:31       30.08
  82309b               JUNCTION     6.28    33.89   146.19     0  00:33       29.65
  Up                   JUNCTION     7.13    26.77   139.07     0  00:34       23.63
  82309e               JUNCTION     4.50    14.71   127.01     0  01:12       14.02
  80408a               JUNCTION     3.69     6.00   130.60     0  00:08        6.00
  10208                OUTFALL      1.56     2.20    92.10     0  03:01        2.20
  10208b               OUTFALL      1.31     2.63    92.53     0  02:05        2.63
  10208c               OUTFALL      1.30     2.60    92.50     0  03:00        2.60
  10208d               OUTFALL      1.40     2.52    92.42     0  03:05        2.52
  10208e               OUTFALL      1.22     2.44    92.34     0  03:01        2.44
  10208a               OUTFALL      1.70     2.45    92.35     0  01:50        2.45
  82309d               STORAGE      7.48    21.31   133.61     0  03:00       21.31
  
  
  *******************
  Node Inflow Summary
  *******************
  
  -------------------------------------------------------------------------------------------------
                                  Maximum  Maximum                  Lateral       Total        Flow
                                  Lateral    Total  Time of Max      Inflow      Inflow     Balance
                                   Inflow   Inflow   Occurrence      Volume      Volume       Error
  Node                 Type           CFS      CFS  days hr:min    10^6 gal    10^6 gal     Percent
  -------------------------------------------------------------------------------------------------
  10309                JUNCTION      0.00   121.31     0  02:58           0        11.5      16.309
  10309a               JUNCTION      0.00   112.68     0  01:41           0        11.5       1.155
  10309b               JUNCTION      0.00   135.52     0  01:56           0        10.7       0.115
  10309c               JUNCTION      0.00   131.18     0  03:00           0        10.6       0.096
  10309d               JUNCTION      0.00   121.91     0  03:03           0        10.6       0.141
  10309e               JUNCTION      0.00   112.41     0  03:00           0        8.63       0.152
  15009                JUNCTION      0.00    51.57     0  01:08           0        4.05      -0.032
  15009a               JUNCTION      0.00    51.01     0  01:13           0        4.05       0.083
  15009b               JUNCTION      0.00    73.15     0  01:34           0        5.29       0.040
  15009c               JUNCTION      0.00    60.41     0  02:58           0        4.91       0.002
  15009d               JUNCTION      0.00    50.99     0  01:13           0        4.05       0.045
  15009e               JUNCTION      0.00    52.50     0  02:57           0        3.93       0.043
  16009                JUNCTION      0.00   121.64     0  01:44           0        12.2       5.431
  16009a               JUNCTION      0.00   112.71     0  01:38           0        11.6       1.043
  16009b               JUNCTION      0.00   135.56     0  01:53           0        10.7       0.174
  16009c               JUNCTION      0.00   131.18     0  03:00           0        10.6      -0.016
  16009d               JUNCTION      0.00   121.93     0  03:01           0        10.7       0.259
  16009e               JUNCTION      0.00   112.42     0  03:00           0        8.65       0.183
  16109                JUNCTION      0.00    77.36     0  01:13           0         8.5       0.000
  16109a               JUNCTION      0.00    62.29     0  01:50           0        7.65       0.000
  16109b               JUNCTION      0.00    71.65     0  01:01           0         5.4       0.000
  16109c               JUNCTION      0.00    70.77     0  02:57           0        5.75       0.000
  16109d               JUNCTION      0.00    71.95     0  03:00           0        6.65       0.000
  16109e               JUNCTION      0.00    59.94     0  03:00           0        4.74       0.000
  80408                JUNCTION     66.00    66.00     0  00:15        8.16        8.16       0.463
  80408b               JUNCTION     45.00    45.00     0  00:15        3.64        3.64      -0.213
  80408c               JUNCTION     45.00    45.00     0  00:15        3.64        3.64      -0.216
  80408d               JUNCTION     45.00    45.00     0  00:15        3.64        3.64      -0.190
  80408e               JUNCTION     22.50    22.50     0  00:15        1.82        1.82      -0.313
  80608                JUNCTION      0.00    69.05     0  00:33           0        8.12       2.102
  80608a               JUNCTION      0.00    47.70     0  00:32           0        4.75       2.938
  80608b               JUNCTION      0.00    46.49     0  00:22           0        3.64       1.516
  80608c               JUNCTION      0.00    46.49     0  00:22           0        3.64       1.533
  80608d               JUNCTION      0.00    46.51     0  00:22           0        3.64       1.708
  80608e               JUNCTION      0.00    32.25     0  03:05           0        1.82       1.568
  81009                JUNCTION     50.00    50.00     0  00:15        4.04        4.04      -0.336
  81009a               JUNCTION     50.00    50.00     0  00:15        4.04        4.04      -0.498
  81009b               JUNCTION     50.00    50.00     0  00:15        4.04        4.04      -0.502
  81009c               JUNCTION     50.00    50.00     0  00:15        4.04        4.04      -0.534
  81009d               JUNCTION     50.00    50.00     0  00:15        4.04        4.04      -0.498
  81009e               JUNCTION     50.00    50.00     0  00:15        4.04        4.04      -0.590
  81309                JUNCTION      0.00    52.91     0  00:46           0        4.05       0.133
  81309a               JUNCTION      0.00    53.75     0  00:40           0        4.06       0.309
  81309b               JUNCTION      0.00    53.75     0  00:40           0        4.06       0.417
  81309c               JUNCTION      0.00    53.61     0  00:40           0        4.06       0.716
  81309d               JUNCTION      0.00    53.76     0  00:40           0        4.06       0.310
  81309e               JUNCTION      0.00    54.21     0  00:30           0        4.07      12.507
  82308d               JUNCTION      0.00    16.68     0  04:46           0     0.00589       0.000
  82309                JUNCTION     40.00    99.90     0  00:25        3.23        8.69       2.273
  82309a               JUNCTION     40.00    84.59     0  00:31        3.23        7.85       2.640
  82309b               JUNCTION     40.00    85.09     0  01:23        3.23        6.59      -0.924
  Up                   JUNCTION     40.00    84.12     0  00:33        3.23        6.56      -0.874
  82309e               JUNCTION     40.00    62.45     0  00:49        3.23        5.03      -0.807
  80408a               JUNCTION     65.00    65.00     0  00:15        7.94        7.94       0.659
  10208                OUTFALL       0.00    86.82     0  03:01           0        9.71       0.000
  10208b               OUTFALL       0.00   135.38     0  02:05           0        10.6       0.000
  10208c               OUTFALL       0.00   131.13     0  03:00           0        10.6       0.000
  10208d               OUTFALL       0.00   121.83     0  03:05           0        10.6       0.000
  10208e               OUTFALL       0.00   112.35     0  03:01           0        8.61       0.000
  10208a               OUTFALL       0.00   112.57     0  01:50           0        11.3       0.000
  82309d               STORAGE      40.00    85.92     0  00:49        3.23         6.6      -0.804
  
  
  **********************
  Node Surcharge Summary
  **********************
  
  Surcharging occurs when water rises above the top of the highest conduit.
  ---------------------------------------------------------------------
                                               Max. Height   Min. Depth
                                   Hours       Above Crown    Below Rim
  Node                 Type      Surcharged           Feet         Feet
  ---------------------------------------------------------------------
  10309                JUNCTION        0.71          0.400        0.000
  16009                JUNCTION        0.11          0.068        8.932
  16109                JUNCTION        3.68          2.432       13.768
  80408                JUNCTION        2.98         14.597        0.000
  80408b               JUNCTION        2.40          9.400        0.000
  80408c               JUNCTION        2.37          9.400        0.000
  80408d               JUNCTION        2.17          8.754        0.646
  80608                JUNCTION        2.81         12.700        0.000
  80608a               JUNCTION        2.63         12.700        0.000
  80608b               JUNCTION        2.54         12.700        0.000
  80608c               JUNCTION        2.54         12.700        0.000
  80608d               JUNCTION        2.91         12.700        0.000
  80608e               JUNCTION        1.92          6.502        6.198
  81309e               JUNCTION        2.97          8.000        0.000
  82308d               JUNCTION        4.54         19.338       21.362
  82309                JUNCTION        3.02         25.725       10.775
  82309a               JUNCTION        2.82         28.208        8.292
  82309b               JUNCTION        2.67         27.687        8.813
  Up                   JUNCTION        2.68         20.575       15.925
  82309e               JUNCTION        2.41          8.511        6.289
  80408a               JUNCTION        3.04          2.000        0.000
  
  
  *********************
  Node Flooding Summary
  *********************
  
  Flooding refers to all water that overflows a node, whether it ponds or not.
  --------------------------------------------------------------------------
                                                             Total   Maximum
                                 Maximum   Time of Max       Flood    Ponded
                        Hours       Rate    Occurrence      Volume     Depth
  Node                 Flooded       CFS   days hr:min    10^6 gal      Feet
  --------------------------------------------------------------------------
  10309                   0.31     34.10      0  02:58       0.194     0.000
  80408                   2.77     43.88      0  00:28       0.055     5.197
  80408b                  0.02     22.55      0  00:38       0.005     0.000
  80408c                  0.01     13.19      0  00:41       0.002     0.000
  80608                   2.70     42.47      0  00:32       2.492     0.000
  80608a                  0.01     24.29      0  00:33       0.002     0.000
  80608b                  0.74     24.40      0  00:36       0.226     0.000
  80608c                  2.33     22.35      0  00:37       0.253     0.000
  80608d                  0.88     12.75      0  03:00       0.213     0.000
  81309e                  0.02     44.12      0  00:39       0.012     0.000
  80408a                  3.01     47.70      0  00:34       3.137     0.000
  
  
  **********************
  Storage Volume Summary
  **********************
  
  --------------------------------------------------------------------------------------------------
                         Average     Avg  Evap Exfil       Maximum     Max    Time of Max    Maximum
                          Volume    Pcnt  Pcnt  Pcnt        Volume    Pcnt     Occurrence    Outflow
  Storage Unit          1000 ft3    Full  Loss  Loss      1000 ft3    Full    days hr:min        CFS
  --------------------------------------------------------------------------------------------------
  82309d                   5.983      18     0     0        17.049      50       0  03:00      71.95
  
  
  ***********************
  Outfall Loading Summary
  ***********************
  
  -------------------------------------------------------------------------
                         Flow       Avg       Max       Total         Total
                         Freq      Flow      Flow      Volume         SPILL
  Outfall Node           Pcnt       CFS       CFS    10^6 gal           lbs
  -------------------------------------------------------------------------
  10208                 94.24     47.81     86.82       9.714        11.078
  10208b                94.66     52.19    135.38      10.638         0.000
  10208c                97.21     50.74    131.13      10.623         0.000
  10208d                94.28     52.32    121.83      10.630         0.000
  10208e                94.62     42.29    112.35       8.614         0.000
  10208a                94.00     55.89    112.57      11.314         0.000
  -------------------------------------------------------------------------
  System                94.84    301.23    699.30      61.532        11.078
  
  
  ********************
  Link Flow Summary
  ********************
  
  -----------------------------------------------------------------------------
                                 Maximum  Time of Max   Maximum    Max/    Max/
                                  |Flow|   Occurrence   |Veloc|    Full    Full
  Link                 Type          CFS  days hr:min    ft/sec    Flow   Depth
  -----------------------------------------------------------------------------
  1030e                CONDUIT    112.35     0  03:01      5.72    0.04    0.28
  1030                 CONDUIT     86.82     0  03:01      0.92    0.36    0.62
  1030a                CONDUIT    112.57     0  01:50      5.72    0.04    0.28
  1030b                CONDUIT    135.38     0  02:05      5.98    0.04    0.31
  1030c                CONDUIT    131.13     0  03:00      5.94    0.04    0.30
  1030d                CONDUIT    121.83     0  03:05      5.83    0.04    0.29
  1570                 CONDUIT     50.67     0  01:29      3.27    0.41    0.72
  1570a                CONDUIT     50.46     0  01:35      4.45    0.41    0.48
  1570b                CONDUIT     70.90     0  01:51      5.30    0.57    0.55
  1570c                CONDUIT     60.41     0  03:00      7.74    0.07    0.36
  1570d                CONDUIT     50.45     0  01:35      4.48    0.41    0.49
  1570e                CONDUIT     52.50     0  03:00      5.16    0.30    0.45
  1600                 CONDUIT     71.22     0  01:44      6.03    0.49    1.00
  1600a                CONDUIT     62.29     0  02:00      5.27    0.42    0.47
  1600b                CONDUIT     71.24     0  01:09      5.36    0.49    0.49
  1600c                CONDUIT     70.77     0  03:00      5.04    0.48    0.50
  1600d                CONDUIT     71.93     0  03:02      5.20    0.49    0.49
  1600e                CONDUIT     59.92     0  03:00      4.85    0.41    0.46
  1602                 CONDUIT     77.36     0  01:13      4.33    1.78    1.00
  1602a                CONDUIT     62.29     0  01:50      3.93    1.44    0.78
  1602b                CONDUIT     71.65     0  01:01      4.33    1.65    0.79
  1602c                CONDUIT     70.77     0  02:57      4.26    1.63    0.80
  1602d                CONDUIT     71.95     0  03:00      4.29    1.66    0.80
  1602e                CONDUIT     59.94     0  03:00      3.69    1.38    0.77
  1630                 CONDUIT    121.31     0  02:58      5.42    0.05    1.00
  1630a                CONDUIT    112.68     0  01:41      6.04    0.05    0.31
  1630b                CONDUIT    135.52     0  01:56      5.75    0.06    0.33
  1630c                CONDUIT    131.18     0  03:00      5.45    0.06    0.32
  1630d                CONDUIT    121.91     0  03:03      5.49    0.05    0.32
  1630e                CONDUIT    112.41     0  03:00      5.21    0.05    0.31
  8040                 CONDUIT     69.05     0  00:33      6.30    1.47    1.00
  8040a                CONDUIT     47.70     0  00:32      5.13    1.30    1.00
  8040b                CONDUIT     46.49     0  00:22      7.11    0.63    1.00
  8040c                CONDUIT     46.49     0  00:22      7.11    0.63    1.00
  8040d                CONDUIT     46.51     0  00:22      7.11    0.63    1.00
  8040e                CONDUIT     32.25     0  03:05      6.17    0.44    0.85
  8060                 CONDUIT     59.90     0  00:25      5.31    1.12    1.00
  8060a                CONDUIT     46.93     0  03:15      4.81    0.88    1.00
  8060b                CONDUIT     46.75     0  03:11      4.82    0.88    1.00
  8060c                CONDUIT     45.16     0  03:13      4.82    0.85    1.00
  8060d                CONDUIT     45.92     0  00:49      4.85    0.86    1.00
  8060e                CONDUIT     39.39     0  03:12      3.93    0.74    1.00
  8100                 CONDUIT     52.91     0  00:46      6.41    0.93    0.76
  8100a                CONDUIT     53.75     0  00:40      6.47    0.69    0.64
  8100b                CONDUIT     53.75     0  00:40      6.54    0.69    0.63
  8100c                CONDUIT     53.61     0  00:40      6.50    0.69    0.66
  8100d                CONDUIT     53.76     0  00:40      6.47    0.69    0.64
  8100e                CONDUIT     53.52     0  00:30      6.44    0.69    0.85
  8130                 CONDUIT     51.57     0  01:08      5.62    0.73    0.61
  8130a                CONDUIT     51.01     0  01:13      5.58    0.72    0.61
  8130b                CONDUIT     52.86     0  01:33      5.14    0.75    0.65
  8130c                CONDUIT     50.00     0  03:00      6.82    0.71    0.48
  8130d                CONDUIT     50.99     0  01:13      5.54    0.72    0.61
  8130e                CONDUIT     50.00     0  02:57      4.40    0.93    0.73
  PUMP1@82309e-15009e  PUMP         2.50     0  00:01              0.50
  OR1@82309d-82308d    ORIFICE     16.68     0  04:46                      1.00
  OR1@82309b-15009b    ORIFICE     20.31     0  01:35                          
  One_Weir             WEIR        10.50     0  00:42                      1.00
  
  
  ***************************
  Flow Classification Summary
  ***************************
  
  -------------------------------------------------------------------------------------
                      Adjusted    ---------- Fraction of Time in Flow Class ---------- 
                       /Actual         Up    Down  Sub   Sup   Up    Down  Norm  Inlet 
  Conduit               Length    Dry  Dry   Dry   Crit  Crit  Crit  Crit  Ltd   Ctrl  
  -------------------------------------------------------------------------------------
  1030e                   1.00   0.01  0.00  0.00  0.99  0.00  0.00  0.00  0.00  0.00
  1030                    1.00   0.03  0.00  0.00  0.97  0.00  0.00  0.00  0.00  0.00
  1030a                   1.00   0.00  0.05  0.00  0.95  0.00  0.00  0.00  0.04  0.00
  1030b                   1.00   0.02  0.00  0.00  0.98  0.00  0.00  0.00  0.00  0.00
  1030c                   1.00   0.01  0.00  0.00  0.99  0.00  0.00  0.00  0.00  0.00
  1030d                   1.00   0.03  0.00  0.00  0.97  0.00  0.00  0.00  0.00  0.00
  1570                    1.00   0.00  0.00  0.00  1.00  0.00  0.00  0.00  0.96  0.00
  1570a                   1.00   0.00  0.00  0.00  1.00  0.00  0.00  0.00  0.95  0.00
  1570b                   1.00   0.00  0.00  0.00  0.98  0.02  0.00  0.00  0.93  0.00
  1570c                   2.51   0.00  0.00  0.00  0.58  0.42  0.00  0.00  1.00  0.00
  1570d                   1.00   0.00  0.00  0.00  1.00  0.00  0.00  0.00  0.94  0.00
  1570e                   1.00   0.00  0.00  0.00  0.96  0.04  0.00  0.00  0.95  0.00
  1600                    1.00   0.00  0.00  0.00  0.97  0.03  0.00  0.00  0.00  0.00
  1600a                   1.00   0.00  0.00  0.00  0.97  0.02  0.00  0.00  0.51  0.00
  1600b                   1.00   0.00  0.00  0.00  1.00  0.00  0.00  0.00  0.47  0.00
  1600c                   1.00   0.00  0.00  0.00  1.00  0.00  0.00  0.00  0.59  0.00
  1600d                   1.00   0.00  0.00  0.00  0.97  0.02  0.00  0.00  0.47  0.00
  1600e                   1.00   0.00  0.00  0.00  1.00  0.00  0.00  0.00  0.57  0.00
  1602                    1.00   0.00  0.00  0.00  1.00  0.00  0.00  0.00  0.50  0.00
  1602a                   1.00   0.00  0.00  0.00  1.00  0.00  0.00  0.00  0.00  0.00
  1602b                   1.00   0.00  0.00  0.00  1.00  0.00  0.00  0.00  0.50  0.00
  1602c                   1.00   0.00  0.00  0.00  1.00  0.00  0.00  0.00  0.00  0.00
  1602d                   1.00   0.00  0.00  0.00  1.00  0.00  0.00  0.00  0.00  0.00
  1602e                   1.00   0.00  0.40  0.00  0.60  0.00  0.00  0.00  0.45  0.00
  1630                    1.00   0.00  0.00  0.00  0.97  0.03  0.00  0.00  0.00  0.00
  1630a                   1.00   0.00  0.00  0.00  0.96  0.04  0.00  0.00  0.00  0.00
  1630b                   1.00   0.00  0.00  0.00  0.96  0.04  0.00  0.00  0.45  0.00
  1630c                   1.00   0.00  0.00  0.00  0.96  0.04  0.00  0.00  0.47  0.00
  1630d                   1.00   0.00  0.00  0.00  0.96  0.03  0.00  0.00  0.37  0.00
  1630e                   1.00   0.00  0.00  0.00  0.96  0.04  0.00  0.00  0.46  0.00
  8040                    1.00   0.00  0.00  0.00  0.99  0.01  0.00  0.00  0.50  0.00
  8040a                   1.00   0.00  0.00  0.00  1.00  0.00  0.00  0.00  0.02  0.00
  8040b                   1.00   0.00  0.00  0.00  0.97  0.03  0.00  0.00  0.64  0.00
  8040c                   1.00   0.00  0.00  0.00  0.97  0.03  0.00  0.00  0.64  0.00
  8040d                   1.00   0.00  0.00  0.00  0.97  0.03  0.00  0.00  0.62  0.00
  8040e                   1.00   0.00  0.00  0.00  0.96  0.04  0.00  0.00  0.71  0.00
  8060                    1.00   0.00  0.00  0.00  0.46  0.00  0.00  0.54  0.06  0.00
  8060a                   1.00   0.00  0.00  0.00  0.46  0.00  0.00  0.54  0.07  0.00
  8060b                   1.00   0.00  0.00  0.00  0.41  0.00  0.00  0.59  0.06  0.00
  8060c                   1.00   0.00  0.00  0.00  0.42  0.00  0.00  0.58  0.07  0.00
  8060d                   1.00   0.00  0.00  0.00  0.53  0.00  0.00  0.47  0.09  0.00
  8060e                   1.00   0.00  0.00  0.00  0.42  0.00  0.00  0.57  0.11  0.00
  8100                    1.00   0.00  0.00  0.00  0.97  0.03  0.00  0.00  0.90  0.00
  8100a                   1.00   0.00  0.00  0.00  0.97  0.03  0.00  0.00  0.92  0.00
  8100b                   1.00   0.00  0.00  0.00  0.97  0.03  0.00  0.00  0.92  0.00
  8100c                   1.00   0.00  0.00  0.00  0.97  0.03  0.00  0.00  0.91  0.00
  8100d                   1.00   0.00  0.00  0.00  0.97  0.03  0.00  0.00  0.92  0.00
  8100e                   1.00   0.00  0.00  0.00  0.97  0.03  0.00  0.00  0.63  0.00
  8130                    1.00   0.00  0.00  0.00  0.97  0.03  0.00  0.00  0.59  0.00
  8130a                   1.00   0.00  0.00  0.00  0.97  0.03  0.00  0.00  0.59  0.00
  8130b                   1.00   0.00  0.00  0.00  1.00  0.00  0.00  0.00  0.83  0.00
  8130c                   1.00   0.00  0.00  0.00  0.88  0.12  0.00  0.00  0.01  0.00
  8130d                   1.00   0.00  0.00  0.00  0.97  0.03  0.00  0.00  0.59  0.00
  8130e                   1.00   0.00  0.00  0.00  1.00  0.00  0.00  0.00  0.05  0.00
  
  
  *************************
  Conduit Surcharge Summary
  *************************
  
  ----------------------------------------------------------------------------
                                                           Hours        Hours 
                         --------- Hours Full --------   Above Full   Capacity
  Conduit                Both Ends  Upstream  Dnstream   Normal Flow   Limited
  ----------------------------------------------------------------------------
  1030                        0.01      0.71      0.01      0.01         0.01
  1570                        0.01      0.01      6.63      0.01         0.01
  1600                        3.68      3.68      5.35      0.01         0.01
  1602                        2.26      3.30      6.08      2.80         1.81
  1602a                       0.01      3.13      0.01      3.03         0.01
  1602b                       0.01      2.89      0.01      2.81         0.01
  1602c                       0.01      2.92      0.01      2.83         0.01
  1602d                       0.01      3.69      0.01      3.54         0.01
  1602e                       0.01      2.77      0.01      2.61         0.01
  1630                        0.10      0.10      0.71      0.01         0.01
  8040                        2.78      2.97      2.81      2.96         2.71
  8040a                       2.62      3.04      2.63      0.42         0.02
  8040b                       2.39      2.39      2.54      0.01         0.01
  8040c                       2.37      2.37      2.53      0.01         0.01
  8040d                       2.17      2.17      2.91      0.01         0.01
  8040e                       0.01      0.01      1.91      0.01         0.01
  8060                        2.81      2.81      3.02      0.07         0.01
  8060a                       2.63      2.63      2.82      0.01         0.01
  8060b                       2.54      2.54      2.66      0.01         0.01
  8060c                       2.53      2.53      2.68      0.01         0.01
  8060d                       2.91      2.91      3.49      0.01         0.01
  8060e                       1.91      1.91      2.41      0.01         0.01
  8100e                       0.01      0.01      2.97      0.01         0.01
  8130e                       0.01      0.01      2.97      0.01         0.01
  
  
  ***************
  Pumping Summary
  ***************
  
  ---------------------------------------------------------------------------------------------------------
                                                  Min       Avg       Max     Total     Power    % Time Off
                        Percent   Number of      Flow      Flow      Flow    Volume     Usage    Pump Curve
  Pump                 Utilized   Start-Ups       CFS       CFS       CFS  10^6 gal     Kw-hr    Low   High
  ---------------------------------------------------------------------------------------------------------
  PUMP1@82309e-15009e     99.99           1      0.00      1.51      2.50     0.326      4.97    0.0  100.0
  
  
  ***************************
  Link Pollutant Load Summary
  ***************************
  
  ----------------------------------
                               SPILL
  Link                           lbs
  ----------------------------------
  1030e                        0.000
  1030                        11.078
  1030a                        0.000
  1030b                        0.000
  1030c                        0.000
  1030d                        0.000
  1570                         0.000
  1570a                        0.000
  1570b                        0.000
  1570c                        0.000
  1570d                        0.000
  1570e                        0.000
  1600                        12.943
  1600a                        0.000
  1600b                        0.000
  1600c                        0.000
  1600d                        0.000
  1600e                        0.000
  1602                        13.508
  1602a                        0.000
  1602b                        0.000
  1602c                        0.000
  1602d                        0.000
  1602e                        0.000
  1630                        12.426
  1630a                        0.000
  1630b                        0.000
  1630c                        0.000
  1630d                        0.000
  1630e                        0.000
  8040                        24.115
  8040a                        0.000
  8040b                        0.000
  8040c                        0.000
  8040d                        0.000
  8040e                        0.000
  8060                        12.915
  8060a                        0.000
  8060b                        0.000
  8060c                        0.000
  8060d                        0.000
  8060e                        0.000
  8100                         0.000
  8100a                        0.000
  8100b                        0.000
  8100c                        0.000
  8100d                        0.000
  8100e                        0.000
  8130                         0.000
  8130a                        0.000
  8130b                        0.000
  8130c                        0.000
  8130d                        0.000
  8130e                        0.000
  PUMP1@82309e-15009e          0.000
  OR1@82309d-82308d            0.000
  OR1@82309b-15009b            0.000
  One_Weir                     0.000
  

  Analysis begun on:  Tue Nov 20 16:40:23 2018
  Analysis ended on:  Tue Nov 20 16:40:23 2018
  Total elapsed time: < 1 sec