
  EPA STORM WATER MANAGEMENT MODEL - VERSION 5.1 (Build 5.1.012)
  --------------------------------------------------------------

  
  ERROR 205: invalid keyword Weir at line 109 of [CURVE] section:
  WC1             	Weir      	1         	.8        


  Analysis begun on:  Tue Nov 20 16:39:28 2018
  Analysis ended on:  Tue Nov 20 16:39:28 2018
  Total elapsed time: < 1 sec