
  EPA STORM WATER MANAGEMENT MODEL - VERSION 5.1 (Build 5.1.012)
  --------------------------------------------------------------

  Flushing gate control scenario 3 
  
  WARNING 04: minimum elevation drop used for Conduit C1
  
  *********************************************************
  NOTE: The summary statistics displayed in this report are
  based on results found at every computational time step,  
  not just on results from each reporting time step.
  *********************************************************
  
  ****************
  Analysis Options
  ****************
  Flow Units ............... CFS
  Process Models:
    Rainfall/Runoff ........ NO
    RDII ................... NO
    Snowmelt ............... NO
    Groundwater ............ NO
    Flow Routing ........... YES
    Ponding Allowed ........ NO
    Water Quality .......... NO
  Flow Routing Method ...... DYNWAVE
  Starting Date ............ 04/28/2016 18:00:00
  Ending Date .............. 04/29/2016 03:00:00
  Antecedent Dry Days ...... 0.0
  Report Time Step ......... 00:01:00
  Routing Time Step ........ 1.00 sec
  Variable Time Step ....... NO
  Maximum Trials ........... 8
  Number of Threads ........ 2
  Head Tolerance ........... 0.005000 ft
  
  
  *********************
  Control Actions Taken
  *********************
   04/28/2016: 18:00:00 Link OF1 setting changed to   0.00 by Control FLUSHGATECONTROL
   04/28/2016: 18:01:00 Link OF1 setting changed to   0.01 by Control FLUSHGATECONTROL_1

  
  **************************        Volume        Volume
  Flow Routing Continuity        acre-feet      10^6 gal
  **************************     ---------     ---------
  Dry Weather Inflow .......         0.000         0.000
  Wet Weather Inflow .......         0.000         0.000
  Groundwater Inflow .......         0.000         0.000
  RDII Inflow ..............         0.000         0.000
  External Inflow ..........         0.000         0.000
  External Outflow .........         0.000         0.000
  Flooding Loss ............         0.000         0.000
  Evaporation Loss .........         0.000         0.000
  Exfiltration Loss ........         0.000         0.000
  Initial Stored Volume ....         0.246         0.080
  Final Stored Volume ......         0.236         0.077
  Continuity Error (%) .....         4.058
  
  
  *************************
  Highest Continuity Errors
  *************************
  Node J72 (2.53%)
  Node East_Portal (-1.86%)
  
  
  ********************************
  Highest Flow Instability Indexes
  ********************************
  All links are stable.
  
  
  *************************
  Routing Time Step Summary
  *************************
  Minimum Time Step           :     1.00 sec
  Average Time Step           :     1.00 sec
  Maximum Time Step           :     1.00 sec
  Percent in Steady State     :     0.00
  Average Iterations per Step :     2.00
  Percent Not Converging      :     0.00
  
  
  ******************
  Node Depth Summary
  ******************
  
  ---------------------------------------------------------------------------------
                                 Average  Maximum  Maximum  Time of Max    Reported
                                   Depth    Depth      HGL   Occurrence   Max Depth
  Node                 Type         Feet     Feet     Feet  days hr:min        Feet
  ---------------------------------------------------------------------------------
  3rdWinflow           JUNCTION     0.03     1.02   -27.92     0  00:14        0.99
  J1                   JUNCTION     0.04     0.68   -39.42     0  00:33        0.68
  J10                  JUNCTION     0.04     0.66   -42.19     0  00:38        0.66
  J100                 JUNCTION     0.02     1.21   -24.62     0  00:10        1.14
  J101                 JUNCTION     0.02     1.18   -24.96     0  00:10        1.17
  J102                 JUNCTION     0.02     1.16   -25.29     0  00:11        1.09
  J103                 JUNCTION     0.02     1.14   -25.62     0  00:11        1.10
  J104                 JUNCTION     0.02     1.12   -25.95     0  00:12        1.10
  J105                 JUNCTION     0.02     1.10   -26.28     0  00:12        1.06
  J106                 JUNCTION     0.02     1.08   -26.61     0  00:12        1.08
  J107                 JUNCTION     0.02     1.07   -26.94     0  00:13        1.02
  J108                 JUNCTION     0.03     1.05   -27.27     0  00:13        1.04
  J109                 JUNCTION     0.03     1.04   -27.59     0  00:14        0.99
  J11                  JUNCTION     0.04     0.65   -42.50     0  00:38        0.65
  J12                  JUNCTION     0.04     0.65   -42.81     0  00:39        0.65
  J13                  JUNCTION     0.04     0.65   -43.12     0  00:39        0.65
  J14                  JUNCTION     0.04     0.64   -43.43     0  00:40        0.64
  J15                  JUNCTION     0.04     0.64   -43.74     0  00:40        0.64
  J16                  JUNCTION     0.04     0.64   -44.04     0  00:41        0.63
  J17                  JUNCTION     0.04     0.63   -44.36     0  00:41        0.63
  J18                  JUNCTION     0.04     0.63   -44.67     0  00:42        0.63
  J19                  JUNCTION     0.04     0.63   -44.97     0  00:43        0.63
  J2                   JUNCTION     0.03     0.68   -39.72     0  00:33        0.68
  J20                  JUNCTION     0.04     0.63   -45.28     0  00:43        0.63
  J21                  JUNCTION     0.04     0.62   -45.59     0  00:44        0.62
  J22                  JUNCTION     0.04     0.62   -45.90     0  00:44        0.62
  J23                  JUNCTION     0.04     0.62   -46.21     0  00:45        0.62
  J24                  JUNCTION     0.04     0.62   -46.51     0  00:46        0.61
  J25                  JUNCTION     0.04     0.62   -46.82     0  00:46        0.62
  J26                  JUNCTION     0.04     0.61   -47.13     0  00:47        0.61
  J27                  JUNCTION     0.04     0.61   -47.44     0  00:47        0.61
  J28                  JUNCTION     0.04     0.61   -47.75     0  00:48        0.61
  J29                  JUNCTION     0.04     0.60   -48.06     0  00:49        0.60
  J3                   JUNCTION     0.04     0.68   -40.03     0  00:34        0.68
  J30                  JUNCTION     0.04     0.60   -48.37     0  00:49        0.60
  J31                  JUNCTION     0.04     0.60   -48.67     0  00:50        0.60
  J32                  JUNCTION     0.04     0.60   -48.98     0  00:50        0.60
  J33                  JUNCTION     0.04     0.59   -49.29     0  00:51        0.59
  J34                  JUNCTION     0.04     0.59   -49.60     0  00:51        0.59
  J35                  JUNCTION     0.04     0.59   -49.91     0  00:52        0.59
  J36                  JUNCTION     0.04     0.59   -50.21     0  00:53        0.59
  J37                  JUNCTION     0.04     0.58   -50.53     0  00:54        0.58
  J38                  JUNCTION     0.04     0.56   -50.85     0  00:54        0.56
  J39                  JUNCTION     0.03     1.01   -28.25     0  00:15        1.01
  J4                   JUNCTION     0.04     0.67   -40.34     0  00:34        0.67
  J40                  JUNCTION     0.03     1.00   -28.58     0  00:15        0.96
  J41                  JUNCTION     0.03     0.98   -28.92     0  00:15        0.98
  J42                  JUNCTION     0.03     0.97   -29.25     0  00:16        0.93
  J43                  JUNCTION     0.03     0.96   -29.58     0  00:16        0.95
  J44                  JUNCTION     0.03     0.95   -29.90     0  00:17        0.91
  J45                  JUNCTION     0.03     0.94   -30.23     0  00:17        0.91
  J46                  JUNCTION     0.03     0.93   -30.56     0  00:18        0.92
  J47                  JUNCTION     0.03     0.92   -30.89     0  00:18        0.89
  J48                  JUNCTION     0.03     0.90   -31.23     0  00:19        0.90
  J49                  JUNCTION     0.03     0.89   -31.56     0  00:19        0.87
  J5                   JUNCTION     0.04     0.67   -40.65     0  00:35        0.67
  J50                  JUNCTION     0.03     0.88   -31.89     0  00:19        0.88
  J51                  JUNCTION     0.03     0.87   -32.22     0  00:20        0.85
  J52                  JUNCTION     0.03     0.86   -32.55     0  00:20        0.86
  J53                  JUNCTION     0.03     0.86   -32.87     0  00:21        0.83
  J54                  JUNCTION     0.03     0.85   -33.20     0  00:21        0.84
  J55                  JUNCTION     0.03     0.84   -33.52     0  00:22        0.81
  J56                  JUNCTION     0.03     0.83   -33.85     0  00:22        0.82
  J57                  JUNCTION     0.03     0.82   -34.18     0  00:23        0.79
  J58                  JUNCTION     0.03     0.81   -34.51     0  00:23        0.80
  J59                  JUNCTION     0.03     0.80   -34.84     0  00:24        0.78
  J6                   JUNCTION     0.04     0.67   -40.96     0  00:35        0.67
  J60                  JUNCTION     0.03     0.79   -35.17     0  00:24        0.78
  J61                  JUNCTION     0.03     0.78   -35.50     0  00:25        0.77
  J62                  JUNCTION     0.03     0.78   -35.82     0  00:25        0.77
  J63                  JUNCTION     0.03     0.77   -36.15     0  00:26        0.76
  J64                  JUNCTION     0.03     0.76   -36.48     0  00:26        0.75
  J65                  JUNCTION     0.03     0.76   -36.80     0  00:27        0.74
  J66                  JUNCTION     0.03     0.75   -37.13     0  00:27        0.75
  J67                  JUNCTION     0.03     0.74   -37.45     0  00:28        0.73
  J68                  JUNCTION     0.03     0.73   -37.78     0  00:28        0.73
  J69                  JUNCTION     0.03     0.73   -38.10     0  00:29        0.72
  J7                   JUNCTION     0.04     0.67   -41.26     0  00:36        0.66
  J70                  JUNCTION     0.03     0.72   -38.43     0  00:29        0.72
  J71                  JUNCTION     0.03     0.70   -38.77     0  00:30        0.70
  J72                  JUNCTION     0.01     3.86   -13.25     0  00:01        1.57
  J73                  JUNCTION     0.01     3.33   -14.09     0  00:01        2.12
  J74                  JUNCTION     0.01     3.07   -14.66     0  00:01        2.68
  J75                  JUNCTION     0.01     2.85   -15.20     0  00:02        2.63
  J76                  JUNCTION     0.01     2.66   -15.70     0  00:02        1.68
  J77                  JUNCTION     0.01     2.49   -16.18     0  00:02        1.98
  J78                  JUNCTION     0.01     2.36   -16.62     0  00:02        2.29
  J79                  JUNCTION     0.02     2.24   -17.05     0  00:03        1.71
  J8                   JUNCTION     0.04     0.67   -41.57     0  00:36        0.67
  J80                  JUNCTION     0.02     2.13   -17.47     0  00:03        1.69
  J81                  JUNCTION     0.02     2.04   -17.87     0  00:03        1.89
  J82                  JUNCTION     0.02     1.95   -18.27     0  00:04        1.86
  J83                  JUNCTION     0.02     1.89   -18.65     0  00:04        1.53
  J84                  JUNCTION     0.02     1.82   -19.03     0  00:04        1.68
  J85                  JUNCTION     0.02     1.75   -19.41     0  00:05        1.73
  J86                  JUNCTION     0.02     1.70   -19.77     0  00:05        1.43
  J87                  JUNCTION     0.02     1.64   -20.14     0  00:05        1.54
  J88                  JUNCTION     0.02     1.59   -20.50     0  00:06        1.57
  J89                  JUNCTION     0.02     1.55   -20.85     0  00:06        1.36
  J9                   JUNCTION     0.04     0.66   -41.88     0  00:37        0.66
  J90                  JUNCTION     0.02     1.50   -21.21     0  00:06        1.44
  J91                  JUNCTION     0.02     1.47   -21.56     0  00:07        1.42
  J92                  JUNCTION     0.02     1.43   -21.91     0  00:07        1.31
  J93                  JUNCTION     0.02     1.40   -22.25     0  00:07        1.37
  J94                  JUNCTION     0.02     1.37   -22.59     0  00:08        1.23
  J95                  JUNCTION     0.02     1.34   -22.93     0  00:08        1.26
  J96                  JUNCTION     0.02     1.31   -23.27     0  00:08        1.31
  J97                  JUNCTION     0.02     1.28   -23.61     0  00:09        1.17
  J98                  JUNCTION     0.02     1.25   -23.95     0  00:09        1.21
  J99                  JUNCTION     0.02     1.23   -24.29     0  00:10        1.21
  J110                 OUTFALL      0.00     0.00     0.00     0  00:00        0.00
  11thNWdrop           STORAGE      0.03     0.68   -39.11     0  00:32        0.68
  BALLARD_DS           STORAGE      4.05     4.66   -65.34     0  02:39        4.66
  East_Portal          STORAGE      0.01     4.98   -11.82     0  00:01        1.03
  SU1                  STORAGE      0.07    26.60     9.80     0  00:00       26.60
  
  
  *******************
  Node Inflow Summary
  *******************
  
  -------------------------------------------------------------------------------------------------
                                  Maximum  Maximum                  Lateral       Total        Flow
                                  Lateral    Total  Time of Max      Inflow      Inflow     Balance
                                   Inflow   Inflow   Occurrence      Volume      Volume       Error
  Node                 Type           CFS      CFS  days hr:min    10^6 gal    10^6 gal     Percent
  -------------------------------------------------------------------------------------------------
  3rdWinflow           JUNCTION      0.00    27.24     0  00:14           0      0.0769       0.008
  J1                   JUNCTION      0.00    10.60     0  00:33           0      0.0768       0.005
  J10                  JUNCTION      0.00     9.97     0  00:37           0      0.0768       0.002
  J100                 JUNCTION      0.00    38.32     0  00:10           0       0.077       0.018
  J101                 JUNCTION      0.00    36.87     0  00:10           0       0.077       0.008
  J102                 JUNCTION      0.00    35.45     0  00:11           0       0.077       0.016
  J103                 JUNCTION      0.00    34.02     0  00:11           0       0.077       0.011
  J104                 JUNCTION      0.00    32.73     0  00:11           0       0.077       0.009
  J105                 JUNCTION      0.00    31.60     0  00:12           0       0.077       0.016
  J106                 JUNCTION      0.00    30.43     0  00:12           0       0.077       0.003
  J107                 JUNCTION      0.00    29.52     0  00:13           0       0.077       0.011
  J108                 JUNCTION      0.00    28.77     0  00:13           0       0.077       0.009
  J109                 JUNCTION      0.00    28.02     0  00:13           0      0.0769       0.010
  J11                  JUNCTION      0.00     9.86     0  00:38           0      0.0768       0.000
  J12                  JUNCTION      0.00     9.77     0  00:38           0      0.0768      -0.000
  J13                  JUNCTION      0.00     9.69     0  00:39           0      0.0768       0.001
  J14                  JUNCTION      0.00     9.56     0  00:39           0      0.0768      -0.000
  J15                  JUNCTION      0.00     9.47     0  00:40           0      0.0768       0.002
  J16                  JUNCTION      0.00     9.37     0  00:40           0      0.0768       0.000
  J17                  JUNCTION      0.00     9.28     0  00:41           0      0.0768       0.000
  J18                  JUNCTION      0.00     9.21     0  00:42           0      0.0768       0.001
  J19                  JUNCTION      0.00     9.09     0  00:42           0      0.0768       0.000
  J2                   JUNCTION      0.00    10.58     0  00:33           0      0.0768       0.001
  J20                  JUNCTION      0.00     9.01     0  00:43           0      0.0768       0.002
  J21                  JUNCTION      0.00     8.91     0  00:43           0      0.0768       0.001
  J22                  JUNCTION      0.00     8.84     0  00:44           0      0.0768       0.001
  J23                  JUNCTION      0.00     8.77     0  00:44           0      0.0768       0.001
  J24                  JUNCTION      0.00     8.67     0  00:45           0      0.0768      -0.000
  J25                  JUNCTION      0.00     8.60     0  00:46           0      0.0768       0.003
  J26                  JUNCTION      0.00     8.51     0  00:46           0      0.0768      -0.000
  J27                  JUNCTION      0.00     8.45     0  00:47           0      0.0768       0.002
  J28                  JUNCTION      0.00     8.38     0  00:47           0      0.0768       0.000
  J29                  JUNCTION      0.00     8.29     0  00:48           0      0.0768       0.001
  J3                   JUNCTION      0.00    10.56     0  00:34           0      0.0768       0.002
  J30                  JUNCTION      0.00     8.23     0  00:49           0      0.0768       0.001
  J31                  JUNCTION      0.00     8.15     0  00:49           0      0.0768       0.001
  J32                  JUNCTION      0.00     8.09     0  00:50           0      0.0768       0.002
  J33                  JUNCTION      0.00     8.01     0  00:50           0      0.0768       0.001
  J34                  JUNCTION      0.00     7.96     0  00:51           0      0.0768      -0.000
  J35                  JUNCTION      0.00     7.90     0  00:52           0      0.0768       0.003
  J36                  JUNCTION      0.00     7.81     0  00:52           0      0.0768      -0.006
  J37                  JUNCTION      0.00     7.77     0  00:53           0      0.0768      -0.000
  J38                  JUNCTION      0.00     7.63     0  00:53           0      0.0768       0.074
  J39                  JUNCTION      0.00    26.49     0  00:14           0      0.0769       0.006
  J4                   JUNCTION      0.00    10.49     0  00:34           0      0.0768      -0.000
  J40                  JUNCTION      0.00    25.86     0  00:15           0      0.0769       0.007
  J41                  JUNCTION      0.00    25.21     0  00:15           0      0.0769       0.006
  J42                  JUNCTION      0.00    24.59     0  00:16           0      0.0769       0.003
  J43                  JUNCTION      0.00    23.96     0  00:16           0      0.0769       0.007
  J44                  JUNCTION      0.00    23.36     0  00:17           0      0.0769       0.006
  J45                  JUNCTION      0.00    22.79     0  00:17           0      0.0769       0.005
  J46                  JUNCTION      0.00    22.20     0  00:17           0      0.0769       0.005
  J47                  JUNCTION      0.00    21.65     0  00:18           0      0.0769       0.006
  J48                  JUNCTION      0.00    21.12     0  00:18           0      0.0769       0.005
  J49                  JUNCTION      0.00    20.59     0  00:19           0      0.0769       0.006
  J5                   JUNCTION      0.00    10.44     0  00:35           0      0.0768      -0.001
  J50                  JUNCTION      0.00    20.10     0  00:19           0      0.0769       0.004
  J51                  JUNCTION      0.00    19.60     0  00:20           0      0.0769       0.005
  J52                  JUNCTION      0.00    19.13     0  00:20           0      0.0769       0.004
  J53                  JUNCTION      0.00    18.67     0  00:21           0      0.0769       0.003
  J54                  JUNCTION      0.00    18.21     0  00:21           0      0.0769       0.006
  J55                  JUNCTION      0.00    17.76     0  00:22           0      0.0769       0.005
  J56                  JUNCTION      0.00    17.34     0  00:22           0      0.0769       0.004
  J57                  JUNCTION      0.00    16.93     0  00:22           0      0.0769       0.004
  J58                  JUNCTION      0.00    16.53     0  00:23           0      0.0769       0.004
  J59                  JUNCTION      0.00    16.15     0  00:23           0      0.0769       0.004
  J6                   JUNCTION      0.00    10.34     0  00:35           0      0.0768      -0.000
  J60                  JUNCTION      0.00    15.80     0  00:24           0      0.0769       0.004
  J61                  JUNCTION      0.00    15.44     0  00:24           0      0.0769       0.004
  J62                  JUNCTION      0.00    15.11     0  00:25           0      0.0768       0.003
  J63                  JUNCTION      0.00    14.78     0  00:25           0      0.0768       0.004
  J64                  JUNCTION      0.00    14.47     0  00:26           0      0.0768       0.003
  J65                  JUNCTION      0.00    14.17     0  00:26           0      0.0768       0.001
  J66                  JUNCTION      0.00    13.88     0  00:27           0      0.0768       0.005
  J67                  JUNCTION      0.00    13.58     0  00:27           0      0.0768       0.003
  J68                  JUNCTION      0.00    13.32     0  00:28           0      0.0768       0.005
  J69                  JUNCTION      0.00    13.06     0  00:28           0      0.0768      -0.003
  J7                   JUNCTION      0.00    10.24     0  00:36           0      0.0768      -0.000
  J70                  JUNCTION      0.00    12.81     0  00:29           0      0.0768       0.023
  J71                  JUNCTION      0.00    12.65     0  00:30           0      0.0768      -0.149
  J72                  JUNCTION      0.00   542.01     0  00:01           0      0.0811       2.596
  J73                  JUNCTION      0.00   352.36     0  00:01           0      0.0791       0.935
  J74                  JUNCTION      0.00   267.94     0  00:01           0      0.0784       0.196
  J75                  JUNCTION      0.00   231.37     0  00:01           0      0.0782       0.224
  J76                  JUNCTION      0.00   199.59     0  00:02           0       0.078       0.184
  J77                  JUNCTION      0.00   174.86     0  00:02           0      0.0779       0.152
  J78                  JUNCTION      0.00   154.69     0  00:02           0      0.0778       0.123
  J79                  JUNCTION      0.00   138.20     0  00:03           0      0.0777       0.104
  J8                   JUNCTION      0.00    10.16     0  00:36           0      0.0768       0.000
  J80                  JUNCTION      0.00   125.40     0  00:03           0      0.0776       0.088
  J81                  JUNCTION      0.00   113.80     0  00:03           0      0.0775       0.083
  J82                  JUNCTION      0.00   104.41     0  00:03           0      0.0775       0.057
  J83                  JUNCTION      0.00    96.71     0  00:04           0      0.0774       0.057
  J84                  JUNCTION      0.00    89.66     0  00:04           0      0.0774       0.051
  J85                  JUNCTION      0.00    83.19     0  00:04           0      0.0773       0.045
  J86                  JUNCTION      0.00    77.41     0  00:05           0      0.0773       0.041
  J87                  JUNCTION      0.00    72.57     0  00:05           0      0.0773       0.038
  J88                  JUNCTION      0.00    68.01     0  00:05           0      0.0772       0.037
  J89                  JUNCTION      0.00    63.98     0  00:06           0      0.0772       0.034
  J9                   JUNCTION      0.00    10.05     0  00:37           0      0.0768      -0.001
  J90                  JUNCTION      0.00    60.19     0  00:06           0      0.0772       0.021
  J91                  JUNCTION      0.00    57.23     0  00:06           0      0.0772       0.029
  J92                  JUNCTION      0.00    54.46     0  00:07           0      0.0771       0.024
  J93                  JUNCTION      0.00    51.53     0  00:07           0      0.0771       0.019
  J94                  JUNCTION      0.00    49.65     0  00:07           0      0.0771       0.017
  J95                  JUNCTION      0.00    47.34     0  00:08           0      0.0771       0.024
  J96                  JUNCTION      0.00    45.42     0  00:08           0      0.0771       0.017
  J97                  JUNCTION      0.00    43.29     0  00:09           0      0.0771       0.023
  J98                  JUNCTION      0.00    41.53     0  00:09           0       0.077       0.005
  J99                  JUNCTION      0.00    39.81     0  00:09           0       0.077       0.015
  J110                 OUTFALL       0.00     0.00     0  00:00           0           0       0.000 gal
  11thNWdrop           STORAGE       0.00    12.78     0  00:30           0      0.0769       0.172
  BALLARD_DS           STORAGE       0.00     7.58     0  00:54           0      0.0767       0.001
  East_Portal          STORAGE       0.00   890.35     0  00:01           0      0.0797      -1.826
  SU1                  STORAGE       0.00     0.00     0  00:00           0        0.08       0.390
  
  
  **********************
  Node Surcharge Summary
  **********************
  
  No nodes were surcharged.
  
  
  *********************
  Node Flooding Summary
  *********************
  
  No nodes were flooded.
  
  
  **********************
  Storage Volume Summary
  **********************
  
  --------------------------------------------------------------------------------------------------
                         Average     Avg  Evap Exfil       Maximum     Max    Time of Max    Maximum
                          Volume    Pcnt  Pcnt  Pcnt        Volume    Pcnt     Occurrence    Outflow
  Storage Unit          1000 ft3    Full  Loss  Loss      1000 ft3    Full    days hr:min        CFS
  --------------------------------------------------------------------------------------------------
  11thNWdrop               0.037       0     0     0         0.731       1       0  00:32      10.60
  BALLARD_DS               8.908       4     0     0        10.256       5       0  02:39       0.00
  East_Portal              0.004       0     0     0         2.004       8       0  00:01     542.01
  SU1                      0.028       0     0     0        10.693      43       0  00:00     890.35
  
  
  ***********************
  Outfall Loading Summary
  ***********************
  
  -----------------------------------------------------------
                         Flow       Avg       Max       Total
                         Freq      Flow      Flow      Volume
  Outfall Node           Pcnt       CFS       CFS    10^6 gal
  -----------------------------------------------------------
  J110                   0.00      0.00      0.00       0.000
  -----------------------------------------------------------
  System                 0.00      0.00      0.00       0.000
  
  
  ********************
  Link Flow Summary
  ********************
  
  -----------------------------------------------------------------------------
                                 Maximum  Time of Max   Maximum    Max/    Max/
                                  |Flow|   Occurrence   |Veloc|    Full    Full
  Link                 Type          CFS  days hr:min    ft/sec    Flow   Depth
  -----------------------------------------------------------------------------
  C1                   CONDUIT      0.00     0  00:00      0.00    0.00    0.00
  C1_1                 CONDUIT     10.60     0  00:33      3.40    0.00    0.04
  C1_10                CONDUIT      9.97     0  00:37      3.54    0.00    0.04
  C1_100               CONDUIT     41.53     0  00:09      6.06    0.01    0.07
  C1_101               CONDUIT     39.81     0  00:09      5.98    0.01    0.07
  C1_102               CONDUIT     38.32     0  00:10      5.87    0.01    0.07
  C1_103               CONDUIT     36.87     0  00:10      5.79    0.01    0.06
  C1_104               CONDUIT     35.45     0  00:11      5.71    0.01    0.06
  C1_105               CONDUIT     34.02     0  00:11      5.62    0.01    0.06
  C1_106               CONDUIT     32.73     0  00:11      5.55    0.01    0.06
  C1_107               CONDUIT     31.60     0  00:12      5.47    0.01    0.06
  C1_108               CONDUIT     30.43     0  00:12      5.41    0.01    0.06
  C1_109               CONDUIT     29.52     0  00:13      5.35    0.01    0.06
  C1_11                CONDUIT      9.86     0  00:38      3.54    0.00    0.04
  C1_110               CONDUIT     28.77     0  00:13      5.27    0.01    0.06
  C1_111               CONDUIT     28.02     0  00:13      5.23    0.01    0.06
  C1_112               CONDUIT     27.24     0  00:14      5.20    0.01    0.06
  C1_12                CONDUIT      9.77     0  00:38      3.55    0.00    0.04
  C1_13                CONDUIT      9.69     0  00:39      3.54    0.00    0.04
  C1_14                CONDUIT      9.56     0  00:39      3.53    0.00    0.04
  C1_15                CONDUIT      9.47     0  00:40      3.53    0.00    0.04
  C1_16                CONDUIT      9.37     0  00:40      3.51    0.00    0.04
  C1_17                CONDUIT      9.28     0  00:41      3.52    0.00    0.04
  C1_18                CONDUIT      9.21     0  00:42      3.50    0.00    0.04
  C1_19                CONDUIT      9.09     0  00:42      3.48    0.00    0.04
  C1_2                 CONDUIT     10.58     0  00:33      3.42    0.00    0.04
  C1_20                CONDUIT      9.01     0  00:43      3.48    0.00    0.03
  C1_21                CONDUIT      8.91     0  00:43      3.46    0.00    0.03
  C1_22                CONDUIT      8.84     0  00:44      3.46    0.00    0.03
  C1_23                CONDUIT      8.77     0  00:44      3.44    0.00    0.03
  C1_24                CONDUIT      8.67     0  00:45      3.42    0.00    0.03
  C1_25                CONDUIT      8.60     0  00:46      3.42    0.00    0.03
  C1_26                CONDUIT      8.51     0  00:46      3.40    0.00    0.03
  C1_27                CONDUIT      8.45     0  00:47      3.40    0.00    0.03
  C1_28                CONDUIT      8.38     0  00:47      3.38    0.00    0.03
  C1_29                CONDUIT      8.29     0  00:48      3.36    0.00    0.03
  C1_3                 CONDUIT     10.56     0  00:34      3.45    0.00    0.04
  C1_30                CONDUIT      8.23     0  00:49      3.35    0.00    0.03
  C1_31                CONDUIT      8.15     0  00:49      3.34    0.00    0.03
  C1_32                CONDUIT      8.09     0  00:50      3.33    0.00    0.03
  C1_33                CONDUIT      8.01     0  00:50      3.32    0.00    0.03
  C1_34                CONDUIT      7.96     0  00:51      3.32    0.00    0.03
  C1_35                CONDUIT      7.90     0  00:52      3.29    0.00    0.03
  C1_36                CONDUIT      7.81     0  00:52      3.28    0.00    0.03
  C1_37                CONDUIT      7.77     0  00:53      3.28    0.00    0.03
  C1_38                CONDUIT      7.63     0  00:53      3.60    0.00    0.03
  C1_39                CONDUIT      7.58     0  00:54      4.08    0.00    0.03
  C1_4                 CONDUIT     10.49     0  00:34      3.48    0.00    0.04
  C1_40                CONDUIT     26.49     0  00:14      5.17    0.01    0.06
  C1_41                CONDUIT     25.86     0  00:15      5.13    0.01    0.05
  C1_42                CONDUIT     25.21     0  00:15      5.09    0.01    0.05
  C1_43                CONDUIT     24.59     0  00:16      5.05    0.01    0.05
  C1_44                CONDUIT     23.96     0  00:16      5.00    0.01    0.05
  C1_45                CONDUIT     23.36     0  00:17      4.96    0.01    0.05
  C1_46                CONDUIT     22.79     0  00:17      4.94    0.01    0.05
  C1_47                CONDUIT     22.20     0  00:17      4.91    0.01    0.05
  C1_48                CONDUIT     21.65     0  00:18      4.87    0.01    0.05
  C1_49                CONDUIT     21.12     0  00:18      4.83    0.01    0.05
  C1_5                 CONDUIT     10.44     0  00:35      3.51    0.00    0.04
  C1_50                CONDUIT     20.59     0  00:19      4.80    0.01    0.05
  C1_51                CONDUIT     20.10     0  00:19      4.76    0.00    0.05
  C1_52                CONDUIT     19.60     0  00:20      4.73    0.00    0.05
  C1_53                CONDUIT     19.13     0  00:20      4.69    0.00    0.05
  C1_54                CONDUIT     18.67     0  00:21      4.66    0.00    0.05
  C1_55                CONDUIT     18.21     0  00:21      4.62    0.00    0.05
  C1_56                CONDUIT     17.76     0  00:22      4.58    0.00    0.05
  C1_57                CONDUIT     17.34     0  00:22      4.55    0.00    0.05
  C1_58                CONDUIT     16.93     0  00:22      4.52    0.00    0.05
  C1_59                CONDUIT     16.53     0  00:23      4.48    0.00    0.04
  C1_6                 CONDUIT     10.34     0  00:35      3.51    0.00    0.04
  C1_60                CONDUIT     16.15     0  00:23      4.44    0.00    0.04
  C1_61                CONDUIT     15.80     0  00:24      4.40    0.00    0.04
  C1_62                CONDUIT     15.44     0  00:24      4.36    0.00    0.04
  C1_63                CONDUIT     15.11     0  00:25      4.32    0.00    0.04
  C1_64                CONDUIT     14.78     0  00:25      4.29    0.00    0.04
  C1_65                CONDUIT     14.47     0  00:26      4.25    0.00    0.04
  C1_66                CONDUIT     14.17     0  00:26      4.21    0.00    0.04
  C1_67                CONDUIT     13.88     0  00:27      4.17    0.00    0.04
  C1_68                CONDUIT     13.58     0  00:27      4.13    0.00    0.04
  C1_69                CONDUIT     13.32     0  00:28      4.12    0.00    0.04
  C1_7                 CONDUIT     10.24     0  00:36      3.52    0.00    0.04
  C1_70                CONDUIT     13.06     0  00:28      4.08    0.00    0.04
  C1_71                CONDUIT     12.81     0  00:29      4.06    0.00    0.04
  C1_72                CONDUIT     12.65     0  00:30      4.01    0.00    0.04
  C1_73                CONDUIT     12.78     0  00:30      6.40    0.00    0.04
  C1_74                CONDUIT    542.01     0  00:01     14.59    0.13    0.21
  C1_75                CONDUIT    352.36     0  00:01     12.37    0.09    0.17
  C1_76                CONDUIT    267.94     0  00:01     10.93    0.07    0.16
  C1_77                CONDUIT    231.37     0  00:01     10.60    0.06    0.15
  C1_78                CONDUIT    199.59     0  00:02     10.11    0.05    0.14
  C1_79                CONDUIT    174.86     0  00:02      9.67    0.04    0.13
  C1_8                 CONDUIT     10.16     0  00:36      3.53    0.00    0.04
  C1_80                CONDUIT    154.69     0  00:02      9.27    0.04    0.12
  C1_81                CONDUIT    138.20     0  00:03      8.93    0.03    0.12
  C1_82                CONDUIT    125.40     0  00:03      8.64    0.03    0.11
  C1_83                CONDUIT    113.80     0  00:03      8.37    0.03    0.11
  C1_84                CONDUIT    104.41     0  00:03      8.13    0.03    0.10
  C1_85                CONDUIT     96.71     0  00:04      7.92    0.02    0.10
  C1_86                CONDUIT     89.66     0  00:04      7.72    0.02    0.10
  C1_87                CONDUIT     83.19     0  00:04      7.55    0.02    0.09
  C1_88                CONDUIT     77.41     0  00:05      7.40    0.02    0.09
  C1_89                CONDUIT     72.57     0  00:05      7.25    0.02    0.09
  C1_9                 CONDUIT     10.05     0  00:37      3.54    0.00    0.04
  C1_90                CONDUIT     68.01     0  00:05      7.08    0.02    0.09
  C1_91                CONDUIT     63.98     0  00:06      6.93    0.02    0.08
  C1_92                CONDUIT     60.19     0  00:06      6.80    0.01    0.08
  C1_93                CONDUIT     57.23     0  00:06      6.67    0.01    0.08
  C1_94                CONDUIT     54.46     0  00:07      6.54    0.01    0.08
  C1_95                CONDUIT     51.53     0  00:07      6.44    0.01    0.08
  C1_96                CONDUIT     49.65     0  00:07      6.36    0.01    0.07
  C1_97                CONDUIT     47.34     0  00:08      6.28    0.01    0.07
  C1_98                CONDUIT     45.42     0  00:08      6.20    0.01    0.07
  C1_99                CONDUIT     43.29     0  00:09      6.13    0.01    0.07
  OF1                  ORIFICE    890.35     0  00:01                      1.00
  
  
  ***************************
  Flow Classification Summary
  ***************************
  
  -------------------------------------------------------------------------------------
                      Adjusted    ---------- Fraction of Time in Flow Class ---------- 
                       /Actual         Up    Down  Sub   Sup   Up    Down  Norm  Inlet 
  Conduit               Length    Dry  Dry   Dry   Crit  Crit  Crit  Crit  Ltd   Ctrl  
  -------------------------------------------------------------------------------------
  C1                      1.00   1.00  0.00  0.00  0.00  0.00  0.00  0.00  0.00  0.00
  C1_1                    1.00   0.73  0.00  0.00  0.27  0.00  0.00  0.00  0.26  0.00
  C1_10                   1.00   0.74  0.00  0.00  0.26  0.00  0.00  0.00  0.93  0.00
  C1_100                  1.00   0.91  0.00  0.00  0.08  0.00  0.00  0.00  0.98  0.00
  C1_101                  1.00   0.91  0.00  0.00  0.08  0.00  0.00  0.00  0.98  0.00
  C1_102                  1.00   0.91  0.00  0.00  0.08  0.00  0.00  0.00  0.98  0.00
  C1_103                  1.00   0.91  0.00  0.00  0.08  0.00  0.00  0.00  0.98  0.00
  C1_104                  1.00   0.91  0.00  0.00  0.08  0.00  0.00  0.00  0.98  0.00
  C1_105                  1.00   0.91  0.00  0.00  0.08  0.00  0.00  0.00  0.98  0.00
  C1_106                  1.00   0.91  0.00  0.00  0.08  0.00  0.00  0.00  0.98  0.00
  C1_107                  1.00   0.91  0.00  0.00  0.08  0.00  0.00  0.00  0.98  0.00
  C1_108                  1.00   0.91  0.00  0.00  0.08  0.00  0.00  0.00  0.97  0.00
  C1_109                  1.00   0.92  0.00  0.00  0.08  0.00  0.00  0.00  0.98  0.00
  C1_11                   1.00   0.74  0.00  0.00  0.26  0.00  0.00  0.00  0.13  0.00
  C1_110                  1.00   0.92  0.00  0.00  0.08  0.00  0.00  0.00  0.97  0.00
  C1_111                  1.00   0.92  0.00  0.00  0.08  0.00  0.00  0.00  0.07  0.00
  C1_112                  1.00   0.92  0.00  0.00  0.08  0.00  0.00  0.00  0.07  0.00
  C1_12                   1.00   0.74  0.00  0.00  0.26  0.00  0.00  0.00  0.22  0.00
  C1_13                   1.00   0.74  0.00  0.00  0.26  0.00  0.00  0.00  0.25  0.00
  C1_14                   1.00   0.74  0.00  0.00  0.26  0.00  0.00  0.00  0.84  0.00
  C1_15                   1.00   0.74  0.00  0.00  0.26  0.00  0.00  0.00  0.22  0.00
  C1_16                   1.00   0.74  0.00  0.00  0.26  0.00  0.00  0.00  0.84  0.00
  C1_17                   1.00   0.74  0.00  0.00  0.26  0.00  0.00  0.00  0.92  0.00
  C1_18                   1.00   0.74  0.00  0.00  0.26  0.00  0.00  0.00  0.95  0.00
  C1_19                   1.00   0.74  0.00  0.00  0.26  0.00  0.00  0.00  0.84  0.00
  C1_2                    1.00   0.73  0.00  0.00  0.27  0.00  0.00  0.00  0.14  0.00
  C1_20                   1.00   0.74  0.00  0.00  0.26  0.00  0.00  0.00  0.93  0.00
  C1_21                   1.00   0.74  0.00  0.00  0.26  0.00  0.00  0.00  0.84  0.00
  C1_22                   1.00   0.74  0.00  0.00  0.26  0.00  0.00  0.00  0.92  0.00
  C1_23                   1.00   0.74  0.00  0.00  0.26  0.00  0.00  0.00  0.95  0.00
  C1_24                   1.00   0.74  0.00  0.00  0.26  0.00  0.00  0.00  0.13  0.00
  C1_25                   1.00   0.74  0.00  0.00  0.26  0.00  0.00  0.00  0.22  0.00
  C1_26                   1.00   0.74  0.00  0.00  0.26  0.00  0.00  0.00  0.84  0.00
  C1_27                   1.00   0.74  0.00  0.00  0.26  0.00  0.00  0.00  0.91  0.00
  C1_28                   1.00   0.74  0.00  0.00  0.26  0.00  0.00  0.00  0.25  0.00
  C1_29                   1.00   0.74  0.00  0.00  0.26  0.00  0.00  0.00  0.83  0.00
  C1_3                    1.00   0.73  0.00  0.00  0.26  0.00  0.00  0.00  0.94  0.00
  C1_30                   1.00   0.74  0.00  0.00  0.26  0.00  0.00  0.00  0.24  0.00
  C1_31                   1.00   0.74  0.00  0.00  0.26  0.00  0.00  0.00  0.83  0.00
  C1_32                   1.00   0.74  0.00  0.00  0.26  0.00  0.00  0.00  0.93  0.00
  C1_33                   1.00   0.74  0.00  0.00  0.26  0.00  0.00  0.00  0.83  0.00
  C1_34                   1.00   0.74  0.00  0.00  0.26  0.00  0.00  0.00  0.91  0.00
  C1_35                   1.00   0.74  0.00  0.00  0.26  0.00  0.00  0.00  0.94  0.00
  C1_36                   1.00   0.74  0.00  0.00  0.26  0.00  0.00  0.00  0.83  0.00
  C1_37                   1.00   0.74  0.00  0.00  0.26  0.00  0.00  0.00  0.90  0.00
  C1_38                   1.00   0.74  0.00  0.00  0.25  0.00  0.00  0.00  0.90  0.00
  C1_39                   1.00   0.74  0.00  0.00  0.00  0.00  0.00  0.26  0.00  0.00
  C1_4                    1.00   0.73  0.00  0.00  0.26  0.00  0.00  0.00  0.84  0.00
  C1_40                   1.00   0.92  0.00  0.00  0.08  0.00  0.00  0.00  0.07  0.00
  C1_41                   1.00   0.92  0.00  0.00  0.08  0.00  0.00  0.00  0.97  0.00
  C1_42                   1.00   0.92  0.00  0.00  0.08  0.00  0.00  0.00  0.97  0.00
  C1_43                   1.00   0.92  0.00  0.00  0.08  0.00  0.00  0.00  0.07  0.00
  C1_44                   1.00   0.92  0.00  0.00  0.08  0.00  0.00  0.00  0.97  0.00
  C1_45                   1.00   0.91  0.00  0.00  0.08  0.00  0.00  0.00  0.97  0.00
  C1_46                   1.00   0.91  0.00  0.00  0.08  0.00  0.00  0.00  0.97  0.00
  C1_47                   1.00   0.91  0.00  0.00  0.09  0.00  0.00  0.00  0.97  0.00
  C1_48                   1.00   0.91  0.00  0.00  0.09  0.00  0.00  0.00  0.97  0.00
  C1_49                   1.00   0.91  0.00  0.00  0.09  0.00  0.00  0.00  0.97  0.00
  C1_5                    1.00   0.73  0.00  0.00  0.26  0.00  0.00  0.00  0.94  0.00
  C1_50                   1.00   0.91  0.00  0.00  0.09  0.00  0.00  0.00  0.96  0.00
  C1_51                   1.00   0.91  0.00  0.00  0.09  0.00  0.00  0.00  0.96  0.00
  C1_52                   1.00   0.91  0.00  0.00  0.09  0.00  0.00  0.00  0.96  0.00
  C1_53                   1.00   0.90  0.00  0.00  0.09  0.00  0.00  0.00  0.96  0.00
  C1_54                   1.00   0.90  0.00  0.00  0.09  0.00  0.00  0.00  0.96  0.00
  C1_55                   1.00   0.90  0.00  0.00  0.10  0.00  0.00  0.00  0.96  0.00
  C1_56                   1.00   0.90  0.00  0.00  0.10  0.00  0.00  0.00  0.96  0.00
  C1_57                   1.00   0.90  0.00  0.00  0.10  0.00  0.00  0.00  0.96  0.00
  C1_58                   1.00   0.90  0.00  0.00  0.10  0.00  0.00  0.00  0.96  0.00
  C1_59                   1.00   0.90  0.00  0.00  0.10  0.00  0.00  0.00  0.96  0.00
  C1_6                    1.00   0.73  0.00  0.00  0.26  0.00  0.00  0.00  0.96  0.00
  C1_60                   1.00   0.90  0.00  0.00  0.10  0.00  0.00  0.00  0.96  0.00
  C1_61                   1.00   0.89  0.00  0.00  0.10  0.00  0.00  0.00  0.95  0.00
  C1_62                   1.00   0.89  0.00  0.00  0.10  0.00  0.00  0.00  0.95  0.00
  C1_63                   1.00   0.89  0.00  0.00  0.10  0.00  0.00  0.00  0.95  0.00
  C1_64                   1.00   0.89  0.00  0.00  0.11  0.00  0.00  0.00  0.95  0.00
  C1_65                   1.00   0.89  0.00  0.00  0.11  0.00  0.00  0.00  0.95  0.00
  C1_66                   1.00   0.89  0.00  0.00  0.11  0.00  0.00  0.00  0.95  0.00
  C1_67                   1.00   0.89  0.00  0.00  0.11  0.00  0.00  0.00  0.95  0.00
  C1_68                   1.00   0.89  0.00  0.00  0.11  0.00  0.00  0.00  0.95  0.00
  C1_69                   1.00   0.88  0.00  0.00  0.11  0.00  0.00  0.00  0.95  0.00
  C1_7                    1.00   0.73  0.00  0.00  0.26  0.00  0.00  0.00  0.14  0.00
  C1_70                   1.00   0.88  0.00  0.00  0.11  0.00  0.00  0.00  0.95  0.00
  C1_71                   1.00   0.88  0.00  0.00  0.11  0.00  0.00  0.00  0.94  0.00
  C1_72                   1.00   0.88  0.00  0.00  0.12  0.00  0.00  0.00  0.97  0.00
  C1_73                   1.00   0.73  0.15  0.00  0.12  0.01  0.00  0.00  0.94  0.00
  C1_74                   1.00   0.91  0.00  0.00  0.09  0.00  0.00  0.00  0.09  0.00
  C1_75                   1.00   0.91  0.00  0.00  0.09  0.00  0.00  0.00  1.00  0.00
  C1_76                   1.00   0.91  0.00  0.00  0.09  0.00  0.00  0.00  0.98  0.00
  C1_77                   1.00   0.91  0.00  0.00  0.09  0.00  0.00  0.00  1.00  0.00
  C1_78                   1.00   0.91  0.00  0.00  0.09  0.00  0.00  0.00  0.09  0.00
  C1_79                   1.00   0.91  0.00  0.00  0.09  0.00  0.00  0.00  1.00  0.00
  C1_8                    1.00   0.74  0.00  0.00  0.26  0.00  0.00  0.00  0.96  0.00
  C1_80                   1.00   0.91  0.00  0.00  0.09  0.00  0.00  0.00  0.99  0.00
  C1_81                   1.00   0.91  0.00  0.00  0.09  0.00  0.00  0.00  0.99  0.00
  C1_82                   1.00   0.91  0.00  0.00  0.09  0.00  0.00  0.00  0.99  0.00
  C1_83                   1.00   0.91  0.00  0.00  0.09  0.00  0.00  0.00  0.99  0.00
  C1_84                   1.00   0.91  0.00  0.00  0.09  0.00  0.00  0.00  0.08  0.00
  C1_85                   1.00   0.91  0.00  0.00  0.09  0.00  0.00  0.00  0.99  0.00
  C1_86                   1.00   0.91  0.00  0.00  0.09  0.00  0.00  0.00  0.99  0.00
  C1_87                   1.00   0.91  0.00  0.00  0.09  0.00  0.00  0.00  0.99  0.00
  C1_88                   1.00   0.91  0.00  0.00  0.09  0.00  0.00  0.00  0.99  0.00
  C1_89                   1.00   0.91  0.00  0.00  0.09  0.00  0.00  0.00  0.99  0.00
  C1_9                    1.00   0.74  0.00  0.00  0.26  0.00  0.00  0.00  0.14  0.00
  C1_90                   1.00   0.91  0.00  0.00  0.09  0.00  0.00  0.00  0.08  0.00
  C1_91                   1.00   0.91  0.00  0.00  0.09  0.00  0.00  0.00  0.99  0.00
  C1_92                   1.00   0.91  0.00  0.00  0.09  0.00  0.00  0.00  0.07  0.00
  C1_93                   1.00   0.91  0.00  0.00  0.09  0.00  0.00  0.00  0.99  0.00
  C1_94                   1.00   0.91  0.00  0.00  0.09  0.00  0.00  0.00  0.99  0.00
  C1_95                   1.00   0.91  0.00  0.00  0.09  0.00  0.00  0.00  0.99  0.00
  C1_96                   1.00   0.91  0.00  0.00  0.09  0.00  0.00  0.00  0.99  0.00
  C1_97                   1.00   0.91  0.00  0.00  0.09  0.00  0.00  0.00  0.98  0.00
  C1_98                   1.00   0.91  0.00  0.00  0.09  0.00  0.00  0.00  0.98  0.00
  C1_99                   1.00   0.91  0.00  0.00  0.08  0.00  0.00  0.00  0.08  0.00
  
  
  *************************
  Conduit Surcharge Summary
  *************************
  
  No conduits were surcharged.
  

  Analysis begun on:  Tue Nov 20 16:40:16 2018
  Analysis ended on:  Tue Nov 20 16:40:18 2018
  Total elapsed time: 00:00:02