
  EPA STORM WATER MANAGEMENT MODEL - VERSION 5.1 (Build 5.1.012)
  --------------------------------------------------------------

  Scenario Run :  1DONLY 
  
  WARNING 02: maximum depth increased for Node 140
  WARNING 02: maximum depth increased for Node 173
  WARNING 02: maximum depth increased for Node 25
  WARNING 02: maximum depth increased for Node 255
  WARNING 02: maximum depth increased for Node 26
  WARNING 02: maximum depth increased for Node 261
  WARNING 02: maximum depth increased for Node 276
  WARNING 02: maximum depth increased for Node 31
  WARNING 02: maximum depth increased for Node 74
  WARNING 02: maximum depth increased for Node 77
  WARNING 02: maximum depth increased for Node JCT-10
  WARNING 02: maximum depth increased for Node JCT-160
  WARNING 02: maximum depth increased for Node JCT-162
  WARNING 02: maximum depth increased for Node JCT-164
  WARNING 02: maximum depth increased for Node JCT-166
  WARNING 02: maximum depth increased for Node JCT-168
  WARNING 02: maximum depth increased for Node JCT-170
  
  **********************           Volume        Volume
  Rainfall Dependent I/I        acre-feet      10^6 gal
  **********************        ---------     ---------
  Sewershed Rainfall ......       173.471        56.528
  RDII Produced ...........         5.019         1.636
  RDII Ratio ..............         0.029
  
  
  *********************************************************
  NOTE: The summary statistics displayed in this report are
  based on results found at every computational time step,  
  not just on results from each reporting time step.
  *********************************************************
  
  ****************
  Analysis Options
  ****************
  Flow Units ............... CFS
  Process Models:
    Rainfall/Runoff ........ YES
    RDII ................... YES
    Snowmelt ............... NO
    Groundwater ............ NO
    Flow Routing ........... YES
    Ponding Allowed ........ NO
    Water Quality .......... NO
  Infiltration Method ...... GREEN_AMPT
  Flow Routing Method ...... DYNWAVE
  Starting Date ............ 01/01/1997 00:00:00
  Ending Date .............. 01/01/1997 02:00:00
  Antecedent Dry Days ...... 5.0
  Report Time Step ......... 00:05:00
  Wet Time Step ............ 00:00:30
  Dry Time Step ............ 00:01:00
  Routing Time Step ........ 30.00 sec
  Variable Time Step ....... YES
  Maximum Trials ........... 6
  Number of Threads ........ 1
  Head Tolerance ........... 0.000100 ft
  
  
  **************************        Volume         Depth
  Runoff Quantity Continuity     acre-feet        inches
  **************************     ---------       -------
  Initial Snow Cover .......         0.000         0.000
  Total Precipitation ......       314.224        12.782
  Evaporation Loss .........         0.162         0.007
  Infiltration Loss ........        47.521         1.933
  Surface Runoff ...........       261.815        10.650
  Snow Removed .............         0.000         0.000
  Final Snow Cover .........         0.000         0.000
  Final Storage ............         4.793         0.195
  Continuity Error (%) .....        -0.021
  
  
  **************************        Volume        Volume
  Flow Routing Continuity        acre-feet      10^6 gal
  **************************     ---------     ---------
  Dry Weather Inflow .......         0.058         0.019
  Wet Weather Inflow .......       261.275        85.140
  Groundwater Inflow .......         0.000         0.000
  RDII Inflow ..............         4.938         1.609
  External Inflow ..........         0.292         0.095
  External Outflow .........        73.569        23.974
  Flooding Loss ............        84.175        27.430
  Evaporation Loss .........         0.027         0.009
  Exfiltration Loss ........         4.004         1.305
  Initial Stored Volume ....         0.003         0.001
  Final Stored Volume ......        94.144        30.678
  Continuity Error (%) .....         3.994
  
  
  *************************
  Highest Continuity Errors
  *************************
  Node 166 (92.65%)
  Node 26 (63.36%)
  Node 989 (22.95%)
  Node 83 (21.70%)
  Node 348 (15.88%)
  
  
  ***************************
  Time-Step Critical Elements
  ***************************
  Link 3289 (59.07%)
  Link 1307 (4.67%)
  Link 1293 (2.97%)
  Link 2601OF (2.83%)
  Link 1228 (2.55%)
  
  
  ********************************
  Highest Flow Instability Indexes
  ********************************
  Link 166OF (101)
  Link CDT-141 (47)
  Link CDT-137 (46)
  Link CDT-143 (44)
  Link PUMP-19 (42)
  
  
  *************************
  Routing Time Step Summary
  *************************
  Minimum Time Step           :     1.56 sec
  Average Time Step           :    10.20 sec
  Maximum Time Step           :    30.00 sec
  Percent in Steady State     :    -0.00
  Average Iterations per Step :     5.84
  Percent Not Converging      :    93.77
  
  
  ***************************
  Subcatchment Runoff Summary
  ***************************
  
  --------------------------------------------------------------------------------------------------------
                            Total      Total      Total      Total      Total       Total     Peak  Runoff
                           Precip      Runon       Evap      Infil     Runoff      Runoff   Runoff   Coeff
  Subcatchment                 in         in         in         in         in    10^6 gal      CFS
  --------------------------------------------------------------------------------------------------------
  C10                       12.78       0.00       0.01       0.25      12.43        3.26   577.11   0.973
  C13                       12.78       0.00       0.01       0.27      12.43        0.61   115.05   0.973
  C15                       12.78       0.00       0.01       1.11      11.61        3.11   528.71   0.908
  C20                       12.78       0.00       0.01       1.63      11.12        2.30   376.56   0.870
  C25                       12.78       0.00       0.01       2.20      10.46        4.22   568.29   0.818
  C30                       12.78       0.00       0.01       2.35      10.41        1.90   271.56   0.814
  C33                       12.78       0.00       0.01       1.79      10.96        2.12   352.76   0.858
  C35                       12.78       0.00       0.01       2.01      10.61        3.88   527.76   0.830
  C45                       12.78       0.00       0.01       2.18      10.40        3.02   394.82   0.814
  C50                       12.78       0.00       0.01       1.81      10.81        5.60   788.16   0.846
  C55                       12.78       0.00       0.01       1.52      11.22        1.97   328.60   0.878
  C57                       12.78       0.00       0.01       1.64      11.10        3.86   602.05   0.868
  C60                       12.78       0.00       0.01       1.46      11.26        4.68   728.78   0.881
  C65                       12.78       0.00       0.01       1.04      11.69        1.98   365.29   0.914
  D10                       12.78       0.00       0.01       0.58      12.12        3.22   556.66   0.948
  D15                       12.78       0.00       0.01       1.35      11.38        1.85   302.84   0.890
  D20                       12.78       0.00       0.01       1.30      11.44        2.14   373.46   0.895
  D21                       12.78       0.00       0.01       2.63      10.05        4.08   512.30   0.786
  D22                       12.78       0.00       0.01       2.54       9.93        3.76   437.96   0.777
  D25                       12.78       0.00       0.01       2.53      10.13        1.57   197.86   0.793
  D30                       12.78       0.00       0.01       2.78       8.49        3.31   296.48   0.664
  D32                       12.78       0.00       0.01       1.59      11.13        1.00   151.14   0.870
  D35                       12.78       0.00       0.01       2.56       9.96        2.20   261.22   0.780
  D40                       12.78       0.00       0.01       2.44      10.20        2.83   359.36   0.798
  D45                       12.78       0.00       0.01       2.21      10.39        4.51   588.65   0.813
  D50                       12.78       0.00       0.01       1.93      10.82        2.46   368.16   0.846
  D55                       12.78       0.00       0.01       2.55       9.67        1.84   198.19   0.757
  D60                       12.78       0.00       0.01       2.54       9.95        3.42   398.69   0.778
  D65                       12.78       0.00       0.01       2.45      10.31        2.42   333.96   0.807
  D70                       12.78       0.00       0.01       1.76      10.99        2.17   333.76   0.860
  
  
  ******************
  Node Depth Summary
  ******************
  
  ---------------------------------------------------------------------------------
                                 Average  Maximum  Maximum  Time of Max    Reported
                                   Depth    Depth      HGL   Occurrence   Max Depth
  Node                 Type         Feet     Feet     Feet  days hr:min        Feet
  ---------------------------------------------------------------------------------
  1001                 JUNCTION     0.76     2.80   711.74     0  00:49        2.40
  105                  JUNCTION     0.18     0.75   679.54     0  00:50        0.75
  13                   JUNCTION     0.02     0.02   689.39     0  01:53        0.02
  136                  JUNCTION     7.55    11.17   676.30     0  00:50       11.17
  137                  JUNCTION     1.58     9.69   700.18     0  00:48        9.69
  140                  JUNCTION     5.12     8.43   674.71     0  00:55        8.39
  144                  JUNCTION     3.97     6.84   673.20     0  00:52        6.67
  147                  JUNCTION     0.27     0.52   687.06     0  01:00        0.52
  15                   JUNCTION     0.01     0.01   687.88     0  01:59        0.01
  150                  JUNCTION     0.49     1.57   683.36     0  00:51        1.54
  158                  JUNCTION     3.71     6.62   676.69     0  00:52        6.57
  166                  JUNCTION     4.91     7.32   677.39     0  00:52        7.31
  173                  JUNCTION     1.79     4.93   674.95     0  00:54        4.91
  179                  JUNCTION     1.97     5.01   673.81     0  00:51        5.01
  18                   JUNCTION     0.01     0.01   694.55     0  01:25        0.01
  183                  JUNCTION     0.78     5.94   676.89     0  00:49        4.64
  19                   JUNCTION     0.68     2.00   673.88     0  00:50        1.97
  200                  JUNCTION     0.53     1.42   690.54     0  00:53        1.39
  201                  JUNCTION     1.53     4.64   698.52     0  00:48        4.39
  205                  JUNCTION     5.50    10.08   674.86     0  00:51        9.60
  209                  JUNCTION     4.66    12.20   683.25     0  00:49        8.12
  232                  JUNCTION     3.90     6.48   677.89     0  00:49        6.48
  244                  JUNCTION     0.23     1.28   679.81     0  00:51        1.19
  25                   JUNCTION     0.00     0.02   673.87     0  00:51        0.01
  255                  JUNCTION     0.94     1.34   670.30     0  01:35        1.34
  257                  JUNCTION     7.40    10.37   680.90     0  00:48       10.01
  26                   JUNCTION     3.44     4.88   670.36     0  01:36        4.87
  260                  JUNCTION     3.06     5.00   677.44     0  00:51        5.00
  261                  JUNCTION     3.18     5.74   678.36     0  00:51        5.65
  267                  JUNCTION     0.27     1.12   697.87     0  00:50        1.12
  269                  JUNCTION     7.98    13.73   680.88     0  00:49       11.73
  276                  JUNCTION     0.27     1.54   682.00     0  00:51        1.38
  281                  JUNCTION     3.53     6.55   679.03     0  00:51        6.55
  285                  JUNCTION     0.32     1.70   683.16     0  00:50        1.69
  297                  JUNCTION     2.22     8.02   682.06     0  00:50        4.97
  304                  JUNCTION     1.75     7.33   682.15     0  00:50        4.19
  306                  JUNCTION     0.56     2.67   682.62     0  00:51        1.80
  31                   JUNCTION     0.17     0.72   672.38     0  00:50        0.72
  32                   JUNCTION     0.00     0.00   697.86     0  01:36        0.00
  323                  JUNCTION     2.50     7.08   685.72     0  00:49        7.05
  325                  JUNCTION     0.58     4.74   681.86     0  00:53        2.03
  33                   JUNCTION     0.02     0.02   693.92     0  02:00        0.02
  333                  JUNCTION     6.31     8.22   685.06     0  00:49        8.22
  348                  JUNCTION     2.82     4.99   687.66     0  00:49        4.99
  351                  JUNCTION     8.82    11.44   687.07     0  00:51       11.40
  371                  JUNCTION     0.35     1.27   698.32     0  00:50        1.26
  384                  JUNCTION     4.21     8.28   689.39     0  00:47        5.65
  387                  JUNCTION     3.51     7.55   701.50     0  00:50        7.53
  393                  JUNCTION     0.04     0.04   688.37     0  00:25        0.04
  4                    JUNCTION     0.01     0.01   691.31     0  01:46        0.01
  407                  JUNCTION     0.27     0.88   709.24     0  00:50        0.87
  46                   JUNCTION     3.65    15.05   702.32     0  00:48       15.05
  56                   JUNCTION     0.04     0.05   685.28     0  02:00        0.05
  64                   JUNCTION     2.67    13.82   702.27     0  00:48       13.64
  7                    JUNCTION     0.87     2.90   677.41     0  00:54        2.90
  74                   JUNCTION     2.98     4.38   670.35     0  01:35        4.37
  76                   JUNCTION     2.47    13.46   702.27     0  00:48       13.10
  77                   JUNCTION     2.18     3.01   670.47     0  01:35        3.01
  879                  JUNCTION     0.00     0.00   697.41     0  02:00        0.00
  882                  JUNCTION     0.13     0.27   692.75     0  00:57        0.26
  893                  JUNCTION     0.23     0.78   703.46     0  00:51        0.74
  894                  JUNCTION     0.23     0.79   706.06     0  00:50        0.78
  95                   JUNCTION     0.37     1.26   695.43     0  00:50        1.25
  956                  JUNCTION     0.30     0.77   695.14     0  00:51        0.72
  974                  JUNCTION     1.22     5.32   681.03     0  00:53        3.35
  982                  JUNCTION     1.26     5.59   681.43     0  00:53        3.26
  JCT-10               JUNCTION     2.06     4.98   675.00     0  00:54        4.97
  JCT-100              JUNCTION     2.17     4.00   720.75     0  01:09        4.00
  JCT-102              JUNCTION     1.74     2.98   718.98     0  01:09        2.98
  JCT-104              JUNCTION     2.81     5.74   720.68     0  01:49        5.74
  JCT-106              JUNCTION     3.28     6.52   719.99     0  01:49        6.52
  JCT-108              JUNCTION     2.18     3.94   716.83     0  01:23        3.94
  JCT-110              JUNCTION     0.33     1.04   711.81     0  01:46        0.94
  JCT-112              JUNCTION     0.71     2.55   722.04     0  01:49        2.55
  JCT-114              JUNCTION     1.70     4.00   723.65     0  01:23        4.00
  JCT-116              JUNCTION     0.40     1.10   719.92     0  01:48        1.10
  JCT-118              JUNCTION     2.14     3.99   718.83     0  01:12        3.99
  JCT-12               JUNCTION     2.34     5.53   674.71     0  00:59        3.86
  JCT-120              JUNCTION     2.99     5.77   719.17     0  01:48        5.77
  JCT-122              JUNCTION     2.92     6.02   718.32     0  01:48        6.01
  JCT-124              JUNCTION     2.23     4.04   712.49     0  01:11        4.04
  JCT-126              JUNCTION     1.86     3.35   706.64     0  01:11        3.31
  JCT-128              JUNCTION     0.14     0.20   699.82     0  01:40        0.20
  JCT-130              JUNCTION     0.15     0.25   715.90     0  01:50        0.25
  JCT-132              JUNCTION     2.00     4.00   719.44     0  01:13        4.00
  JCT-134              JUNCTION     0.02     0.03   712.03     0  01:18        0.03
  JCT-136              JUNCTION     0.01     0.01   707.57     0  00:26        0.01
  JCT-138              JUNCTION    11.30    31.63   711.63     0  01:32       26.30
  JCT-14               JUNCTION     2.52     5.08   673.42     0  01:03        4.80
  JCT-140              JUNCTION     9.89    29.22   711.22     0  01:32       23.82
  JCT-142              JUNCTION     8.03    22.94   707.94     0  01:32       20.01
  JCT-144              JUNCTION     7.56    17.23   702.73     0  01:19       17.23
  JCT-146              JUNCTION    17.93    22.41   708.41     0  00:50       22.41
  JCT-148              JUNCTION    34.16    41.48   709.18     0  00:50       41.48
  JCT-150              JUNCTION    30.09    38.94   708.94     0  00:50       37.23
  JCT-152              JUNCTION    23.97    33.09   708.09     0  00:50       30.52
  JCT-154              JUNCTION     2.09     3.62   692.62     0  02:00        3.62
  JCT-156              JUNCTION     8.70    28.43   708.90     0  00:57       13.05
  JCT-16               JUNCTION     0.14     0.23   697.11     0  01:55        0.23
  JCT-160              JUNCTION     0.36     1.09   672.11     0  01:03        1.02
  JCT-162              JUNCTION     0.97     1.86   672.03     0  01:01        1.83
  JCT-164              JUNCTION     1.56     2.93   670.51     0  00:58        2.91
  JCT-166              JUNCTION     1.48     2.93   669.88     0  01:06        2.92
  JCT-168              JUNCTION     1.67     2.39   667.26     0  01:05        2.39
  JCT-170              JUNCTION     0.89     1.39   665.35     0  01:06        1.38
  JCT-174              JUNCTION     0.47     1.28   694.55     0  00:55        1.28
  JCT-176              JUNCTION     0.38     1.09   695.98     0  00:54        1.09
  JCT-178              JUNCTION     0.38     1.09   699.26     0  00:53        1.09
  JCT-18               JUNCTION     1.45     4.00   693.97     0  01:29        4.00
  JCT-180              JUNCTION     0.52     1.50   701.75     0  00:50        1.50
  JCT-182              JUNCTION     0.41     1.33   703.82     0  00:51        1.30
  JCT-184              JUNCTION     0.46     1.49   704.49     0  00:51        1.48
  JCT-20               JUNCTION     1.53     4.00   686.57     0  01:27        4.00
  JCT-22               JUNCTION     2.64     8.81   677.92     0  02:00        8.81
  JCT-24               JUNCTION     0.57     3.45   708.28     0  01:54        3.45
  JCT-26               JUNCTION     0.69     3.89   703.51     0  01:48        3.89
  JCT-28               JUNCTION     1.55     4.00   689.15     0  01:27        4.00
  JCT-30               JUNCTION     2.89     7.57   679.19     0  02:00        7.57
  JCT-32               JUNCTION     1.22     4.72   714.90     0  01:44        4.72
  JCT-34               JUNCTION     1.22     4.01   707.13     0  01:35        4.01
  JCT-36               JUNCTION     1.73     4.16   691.55     0  01:23        4.16
  JCT-38               JUNCTION     2.55     6.17   679.28     0  01:45        6.17
  JCT-40               JUNCTION     0.24     0.80   704.25     0  01:47        0.69
  JCT-42               JUNCTION     1.78     4.00   703.39     0  01:27        4.00
  JCT-44               JUNCTION     1.36     4.18   701.34     0  01:54        4.18
  JCT-46               JUNCTION     2.26     4.02   685.34     0  01:10        4.02
  JCT-48               JUNCTION     2.19     4.00   678.61     0  01:17        4.00
  JCT-50               JUNCTION     1.61     4.17   728.45     0  01:28        4.17
  JCT-52               JUNCTION     2.84     7.05   728.05     0  01:48        7.05
  JCT-54               JUNCTION     0.20     0.33   718.00     0  01:50        0.33
  JCT-56               JUNCTION     2.43     4.00   692.05     0  01:06        4.00
  JCT-58               JUNCTION     2.86     5.17   691.22     0  01:48        5.17
  JCT-60               JUNCTION     0.44     0.60   684.81     0  01:58        0.60
  JCT-62               JUNCTION     0.13     0.22   725.63     0  01:50        0.22
  JCT-64               JUNCTION     0.17     0.30   711.63     0  01:50        0.30
  JCT-66               JUNCTION     1.72     4.00   701.57     0  01:24        4.00
  JCT-68               JUNCTION     0.39     0.49   692.49     0  01:58        0.49
  JCT-70               JUNCTION     1.62     4.00   721.84     0  01:33        4.00
  JCT-72               JUNCTION     1.86     4.00   714.40     0  01:21        4.00
  JCT-74               JUNCTION     3.27     4.05   703.86     0  00:53        4.05
  JCT-76               JUNCTION     3.47     4.00   701.16     0  00:43        4.00
  JCT-78               JUNCTION     2.59     4.14   716.33     0  01:04        4.14
  JCT-80               JUNCTION     2.51     3.92   714.28     0  01:03        3.92
  JCT-82               JUNCTION     2.50     4.00   719.11     0  01:04        4.00
  JCT-84               JUNCTION     2.32     3.68   717.72     0  01:04        3.68
  JCT-86               JUNCTION     1.73     4.31   729.93     0  01:38        4.31
  JCT-88               JUNCTION     2.10     4.26   726.26     0  01:18        4.26
  JCT-90               JUNCTION     2.07     4.08   722.97     0  01:16        4.08
  JCT-92               JUNCTION     2.09     4.00   719.36     0  01:15        4.00
  JCT-94               JUNCTION     2.33     5.42   716.42     0  01:48        5.41
  JCT-96               JUNCTION     0.24     0.37   702.37     0  01:45        0.37
  JCT-98               JUNCTION     0.46     1.37   722.17     0  01:48        1.37
  OFALL-10             OUTFALL      0.44     0.60   680.60     0  01:58        0.60
  OFALL-12             OUTFALL      0.73     1.18   661.18     0  01:06        1.17
  VIADUCT1             OUTFALL      0.19     0.75   696.75     0  00:50        0.75
  VIADUCT2             OUTFALL      0.13     0.38   692.38     0  00:51        0.35
  1114                 STORAGE      1.98     2.44   686.08     0  00:49        2.44
  1115                 STORAGE      6.62     8.18   690.68     0  01:26        8.18
  117                  STORAGE      3.71     6.74   673.54     0  00:52        6.62
  163                  STORAGE      2.54     5.79   673.92     0  00:52        5.56
  17                   STORAGE      0.57     1.55   684.49     0  00:52        1.51
  187                  STORAGE      3.59     5.80   677.38     0  00:52        5.80
  229                  STORAGE      2.02     4.47   678.48     0  00:57        4.38
  421                  STORAGE      0.67     2.12   707.67     0  00:50        2.10
  83                   STORAGE      7.07     9.84   670.34     0  01:34        9.84
  989                  STORAGE      1.66     3.30   687.33     0  00:50        3.14
  STOR-10              STORAGE      0.50     0.68   680.68     0  01:54        0.67
  STOR-12              STORAGE      0.40     0.63   685.63     0  01:58        0.61
  STOR-14              STORAGE     10.66    15.92   673.42     0  01:03       15.73
  STOR-16              STORAGE      8.04    21.34   674.17     0  02:00       21.34
  
  
  *******************
  Node Inflow Summary
  *******************
  
  -------------------------------------------------------------------------------------------------
                                  Maximum  Maximum                  Lateral       Total        Flow
                                  Lateral    Total  Time of Max      Inflow      Inflow     Balance
                                   Inflow   Inflow   Occurrence      Volume      Volume       Error
  Node                 Type           CFS      CFS  days hr:min    10^6 gal    10^6 gal     Percent
  -------------------------------------------------------------------------------------------------
  1001                 JUNCTION    394.82   394.82     0  00:50        3.02        3.01       0.205
  105                  JUNCTION    333.76   333.77     0  00:50        2.17        2.17      -0.028
  13                   JUNCTION      0.00     0.00     0  01:46   9.54e-005    0.000163       5.228
  136                  JUNCTION    556.66  1077.95     0  00:52        3.22        21.6       2.853
  137                  JUNCTION      0.00    28.26     0  00:48    0.000151       0.084      -1.139
  140                  JUNCTION      0.00   815.78     0  01:09           0          20       2.514
  144                  JUNCTION      0.00   760.91     0  00:53           0        10.1       1.524
  147                  JUNCTION      0.00     4.46     0  00:49    0.000167      0.0589       0.279
  15                   JUNCTION      0.00     0.01     0  01:54    0.000177    0.000331       1.808
  150                  JUNCTION      0.01   584.22     0  00:50    0.000266         4.5      -0.195
  158                  JUNCTION      0.00   695.02     0  01:15           0        16.3       0.263
  166                  JUNCTION      0.00    79.02     0  00:43           0      0.0951    1260.132
  173                  JUNCTION      0.00    97.44     0  01:04           0        1.52       0.439
  179                  JUNCTION      0.00   628.66     0  00:50           0        7.54       2.275
  18                   JUNCTION      0.00     0.00     0  02:00   4.06e-005   7.71e-005       5.349
  183                  JUNCTION    328.60   918.81     0  00:50        1.97        5.81       0.121
  19                   JUNCTION    373.46   981.66     0  00:50        2.15        8.69       0.378
  200                  JUNCTION    398.70   566.24     0  00:51        3.42        5.23       0.861
  201                  JUNCTION    296.48   296.48     0  00:50        3.31         3.3       2.232
  205                  JUNCTION      0.00   652.19     0  00:50           0        4.45       7.560
  209                  JUNCTION    333.96  1215.28     0  00:49        2.42        8.04      12.580
  232                  JUNCTION    528.71  1084.95     0  00:50        3.12        6.98       1.467
  244                  JUNCTION      0.00   697.60     0  00:50           0        3.51       0.031
  25                   JUNCTION      0.00     5.46     0  00:50           0     0.00203       3.429
  255                  JUNCTION      0.00   760.82     0  00:53           0        14.4       2.137
  257                  JUNCTION    365.29   365.29     0  00:49        1.98        1.98       6.229
  26                   JUNCTION      0.00   310.52     0  00:49    0.000195        2.61     172.928
  260                  JUNCTION      0.00   668.36     0  00:51           0         9.6       0.610
  261                  JUNCTION      0.00   820.73     0  00:50           0        9.58       0.386
  267                  JUNCTION    602.05   602.05     0  00:49        3.86        3.85      -0.033
  269                  JUNCTION    359.36  1188.90     0  00:52        2.83        10.3       8.209
  276                  JUNCTION      0.00   630.86     0  00:50           0        3.01       0.077
  281                  JUNCTION    376.56  1346.61     0  00:53         2.3        12.1       1.878
  285                  JUNCTION      0.00  1002.55     0  00:49   6.02e-005        4.67       0.073
  297                  JUNCTION      0.00   397.37     0  00:50   4.71e-005       0.642      -2.083
  304                  JUNCTION      0.00    61.70     0  00:50   1.18e-005       0.168       0.280
  306                  JUNCTION      0.00   995.39     0  00:51           0        7.88       0.045
  31                   JUNCTION    302.84   302.84     0  00:49        1.85        1.85      -0.087
  32                   JUNCTION      0.00     0.00     0  01:00   1.51e-005   1.51e-005       2.389
  323                  JUNCTION    728.78  1879.74     0  00:50        4.69        12.8       2.015
  325                  JUNCTION      0.00   324.73     0  00:52   2.06e-005        1.37       0.159
  33                   JUNCTION      0.01     0.01     0  01:00    0.000282    0.000282       4.917
  333                  JUNCTION      0.00    60.35     0  00:52    0.000166        1.32       1.492
  348                  JUNCTION    261.23  1041.56     0  00:48         2.2        4.52      18.877
  351                  JUNCTION      0.00   822.82     0  00:48    0.000149        5.17      16.128
  371                  JUNCTION      0.00  1164.33     0  00:50   6.61e-005        8.13       0.067
  384                  JUNCTION    271.56   599.94     0  00:51         1.9        4.82      12.088
  387                  JUNCTION    788.16  1165.05     0  00:50        5.61         8.6       5.776
  393                  JUNCTION      0.01     0.01     0  01:00    0.000659    0.000659       1.806
  4                    JUNCTION      0.00     0.00     0  01:35           0   7.25e-005       6.479
  407                  JUNCTION      0.00   394.94     0  00:50     0.00013        3.01       0.154
  46                   JUNCTION    198.19   198.19     0  00:50        1.84        1.86       0.154
  56                   JUNCTION      0.01     0.01     0  02:00    0.000439    0.000567       8.097
  64                   JUNCTION      0.00    28.37     0  00:48   9.52e-005       0.113       0.439
  7                    JUNCTION    512.30  1202.73     0  00:52        4.08          11       0.234
  74                   JUNCTION      0.00  1261.35     0  00:54   6.14e-005        17.5      12.953
  76                   JUNCTION      0.00    27.37     0  00:48    0.000129      0.0972      -0.023
  77                   JUNCTION      0.00  1123.93     0  00:51           0        16.9       1.329
  879                  JUNCTION      0.00     0.00     0  01:36   2.33e-005    3.8e-005       2.928
  882                  JUNCTION      0.00    16.85     0  00:53    0.000111       0.237       4.478
  893                  JUNCTION      0.00   330.76     0  00:50           0        2.48       0.098
  894                  JUNCTION      0.00   523.14     0  00:50           0        3.87       0.045
  95                   JUNCTION    588.66   588.66     0  00:50        4.51         4.5       0.011
  956                  JUNCTION    151.18   439.04     0  00:50           1        4.04       0.956
  974                  JUNCTION      0.00   579.49     0  00:51   7.76e-005        2.03       2.094
  982                  JUNCTION      0.00   389.41     0  00:51   1.74e-005        1.59       2.435
  JCT-10               JUNCTION    115.05   176.01     0  00:49       0.609        2.07       0.360
  JCT-100              JUNCTION      0.35     0.69     0  01:49     0.00686      0.0135       4.325
  JCT-102              JUNCTION      0.42     1.23     0  01:49     0.00838      0.0237       2.565
  JCT-104              JUNCTION      0.24     0.61     0  01:49     0.00478       0.013       7.283
  JCT-106              JUNCTION      0.28     0.51     0  01:49     0.00549      0.0124       5.515
  JCT-108              JUNCTION      0.45     0.97     0  01:49     0.00884      0.0206       3.142
  JCT-110              JUNCTION      0.21     0.93     0  01:44     0.00425      0.0212       2.870
  JCT-112              JUNCTION      0.37     0.37     0  01:49     0.00718     0.00717       4.042
  JCT-114              JUNCTION      0.80     0.80     0  01:59      0.0131      0.0131       4.069
  JCT-116              JUNCTION      0.31     0.31     0  01:49     0.00612     0.00612       5.233
  JCT-118              JUNCTION      0.53     1.00     0  01:49      0.0104      0.0183       3.465
  JCT-12               JUNCTION      0.00    44.37     0  00:59           0       0.547       0.547
  JCT-120              JUNCTION      0.29     0.51     0  01:13      0.0057      0.0122       7.559
  JCT-122              JUNCTION      0.40     0.69     0  01:48     0.00803      0.0172       3.338
  JCT-124              JUNCTION      0.36     1.44     0  01:49     0.00697       0.031       3.176
  JCT-126              JUNCTION      0.00     0.68     0  01:18   3.18e-005      0.0179       3.545
  JCT-128              JUNCTION      0.00     0.68     0  01:17           0      0.0173       1.469
  JCT-130              JUNCTION      0.39     0.39     0  01:49     0.00758     0.00757       2.177
  JCT-132              JUNCTION      0.28     0.34     0  01:13     0.00552     0.00561       4.845
  JCT-134              JUNCTION      0.00     0.00     0  01:00    0.000113    0.000113       6.528
  JCT-136              JUNCTION      0.00     0.00     0  01:24           0    0.000105       3.430
  JCT-138              JUNCTION      0.00     3.51     0  01:04    0.000111      0.0568       2.447
  JCT-14               JUNCTION      0.00    45.37     0  00:59           0       0.544       0.356
  JCT-140              JUNCTION      0.00     6.55     0  01:13     0.00014       0.056       7.947
  JCT-142              JUNCTION      0.00     6.60     0  01:11    0.000131      0.0677      15.274
  JCT-144              JUNCTION      0.00     6.56     0  01:55   5.08e-005      0.0583      12.327
  JCT-146              JUNCTION      0.00    11.62     0  00:50   1.86e-005       0.109       7.551
  JCT-148              JUNCTION      0.00    17.50     0  00:43           0       0.421       2.054
  JCT-150              JUNCTION      0.00    16.74     0  00:46           0       0.282       2.275
  JCT-152              JUNCTION      0.00    13.33     0  00:49           0       0.276       6.185
  JCT-154              JUNCTION      0.00    12.01     0  01:05   4.74e-005       0.336       7.237
  JCT-156              JUNCTION      0.00     3.96     0  00:57   1.63e-005      0.0845      10.461
  JCT-16               JUNCTION      0.34     0.34     0  01:54     0.00667     0.00666       2.024
  JCT-160              JUNCTION      1.77    43.89     0  00:58      0.0951       0.237      10.137
  JCT-162              JUNCTION      0.00   441.67     0  00:58           0        4.63       5.931
  JCT-164              JUNCTION      0.00  1153.74     0  00:51           0        12.9       3.550
  JCT-166              JUNCTION      0.00  1117.68     0  00:59           0        12.4       7.071
  JCT-168              JUNCTION      0.00  1024.73     0  01:04           0        22.9       4.013
  JCT-170              JUNCTION      0.00  1023.30     0  01:05           0          22       1.880
  JCT-174              JUNCTION      0.00   169.87     0  00:55           0        1.51       0.332
  JCT-176              JUNCTION      0.00   169.95     0  00:54           0        1.52       0.212
  JCT-178              JUNCTION      0.00   169.80     0  00:53           0        1.52       0.328
  JCT-18               JUNCTION      0.79     1.12     0  01:55      0.0151      0.0216       2.784
  JCT-180              JUNCTION      0.00   195.13     0  00:51           0        1.56       0.220
  JCT-182              JUNCTION      0.00   196.84     0  00:50           0        1.56       0.019
  JCT-184              JUNCTION    197.86   197.86     0  00:50        1.57        1.56       0.006
  JCT-20               JUNCTION      0.71     1.51     0  01:54      0.0136      0.0315       2.008
  JCT-22               JUNCTION      0.59     5.51     0  01:27      0.0116        0.11       2.617
  JCT-24               JUNCTION      0.63     0.63     0  01:54      0.0122      0.0122       2.735
  JCT-26               JUNCTION      0.55     1.18     0  01:54      0.0109      0.0227       2.703
  JCT-28               JUNCTION      0.55     1.68     0  01:54       0.011      0.0328       1.922
  JCT-30               JUNCTION      0.57     3.98     0  01:27      0.0113      0.0779       4.067
  JCT-32               JUNCTION      0.91     0.91     0  01:54      0.0176      0.0176       1.700
  JCT-34               JUNCTION      0.56     1.41     0  01:55       0.011      0.0279       2.215
  JCT-36               JUNCTION      0.57     1.67     0  01:54      0.0113      0.0358       1.773
  JCT-38               JUNCTION      0.52     2.50     0  01:27     0.00997      0.0515       4.823
  JCT-40               JUNCTION      0.25     0.25     0  01:54     0.00486     0.00485       6.826
  JCT-42               JUNCTION      0.76     1.01     0  01:54      0.0147      0.0192       3.629
  JCT-44               JUNCTION      0.74     1.16     0  01:27      0.0146      0.0266       2.353
  JCT-46               JUNCTION      0.81     1.95     0  01:54      0.0154      0.0414       1.574
  JCT-48               JUNCTION      0.65     1.92     0  01:54      0.0124      0.0381       2.605
  JCT-50               JUNCTION      0.48     0.48     0  01:49     0.00932     0.00931       3.372
  JCT-52               JUNCTION      0.75     0.94     0  01:49      0.0146      0.0209       2.736
  JCT-54               JUNCTION      0.37     1.32     0  01:49     0.00741      0.0277       1.708
  JCT-56               JUNCTION      0.39     1.70     0  01:49     0.00766      0.0349       2.248
  JCT-58               JUNCTION      0.36     0.64     0  01:49     0.00715      0.0171       4.065
  JCT-60               JUNCTION      0.00    13.82     0  01:57           0       0.368       0.921
  JCT-62               JUNCTION      0.37     0.37     0  01:49     0.00726     0.00725       2.682
  JCT-64               JUNCTION      0.39     0.76     0  01:50     0.00779      0.0148       2.850
  JCT-66               JUNCTION      0.38     1.14     0  01:50      0.0076       0.022       3.673
  JCT-68               JUNCTION      0.00     1.59     0  01:24   9.52e-005      0.0473       2.401
  JCT-70               JUNCTION      0.80     1.12     0  01:59      0.0132      0.0213       3.528
  JCT-72               JUNCTION      0.80     1.63     0  01:59      0.0131      0.0319       1.862
  JCT-74               JUNCTION      0.80     2.71     0  01:59      0.0131      0.0647       1.426
  JCT-76               JUNCTION     63.97    64.48     0  01:59        1.04        1.05       0.233
  JCT-78               JUNCTION      1.55     1.55     0  01:59      0.0253      0.0252       1.372
  JCT-80               JUNCTION      1.19     2.13     0  01:59      0.0194      0.0462       2.068
  JCT-82               JUNCTION      1.48     1.48     0  01:59      0.0241      0.0241       1.389
  JCT-84               JUNCTION      1.61     1.96     0  01:59      0.0263      0.0361       1.833
  JCT-86               JUNCTION      0.69     0.69     0  01:49      0.0135      0.0135       2.055
  JCT-88               JUNCTION      0.36     0.97     0  01:49     0.00701      0.0197       3.174
  JCT-90               JUNCTION      0.35     0.85     0  01:49     0.00683      0.0193       3.555
  JCT-92               JUNCTION      0.44     0.99     0  01:49     0.00879      0.0227       3.089
  JCT-94               JUNCTION      0.50     0.97     0  01:49     0.00986      0.0241       4.032
  JCT-96               JUNCTION      0.74     2.59     0  01:45      0.0152      0.0589       1.759
  JCT-98               JUNCTION      0.34     0.34     0  01:49     0.00688     0.00687       4.813
  OFALL-10             OUTFALL       0.00    13.82     0  01:58           0       0.365       0.000
  OFALL-12             OUTFALL       0.00  1018.24     0  01:06           0        21.6       0.000
  VIADUCT1             OUTFALL       0.00   191.91     0  00:50           0        1.39       0.000
  VIADUCT2             OUTFALL       0.00    66.78     0  00:51           0       0.604       0.000
  1114                 STORAGE     568.29  1787.42     0  00:52        4.23        10.7       1.956
  1115                 STORAGE     352.76   352.76     0  00:50        2.12        2.12       0.337
  117                  STORAGE     577.11  1487.71     0  00:50        3.26          24       1.970
  163                  STORAGE       0.00  1089.48     0  00:50           0        10.7       2.603
  17                   STORAGE     437.96   710.49     0  00:52        3.76        6.93       0.090
  187                  STORAGE     368.16  1931.04     0  00:56        2.47        24.8       1.188
  229                  STORAGE       0.00  1753.56     0  00:51           0        13.5       1.161
  421                  STORAGE     527.76   527.76     0  00:50        3.88        3.87       0.027
  83                   STORAGE       0.00  1877.73     0  00:56           0        22.5      27.717
  989                  STORAGE       0.00   418.50     0  00:49           0       0.404      29.782
  STOR-10              STORAGE       0.00     2.58     0  01:45           0      0.0579       1.062
  STOR-12              STORAGE       0.00     0.68     0  01:40           0       0.017       2.960
  STOR-14              STORAGE       0.00    43.52     0  00:55           0       0.542       8.318
  STOR-16              STORAGE       0.00     5.08     0  01:28           0       0.107      17.389
  
  
  **********************
  Node Surcharge Summary
  **********************
  
  Surcharging occurs when water rises above the top of the highest conduit.
  ---------------------------------------------------------------------
                                               Max. Height   Min. Depth
                                   Hours       Above Crown    Below Rim
  Node                 Type      Surcharged           Feet         Feet
  ---------------------------------------------------------------------
  1001                 JUNCTION        0.08          0.799        1.601
  136                  JUNCTION        1.26          7.920        0.000
  137                  JUNCTION        0.26          7.690        0.000
  144                  JUNCTION        1.30          4.841        1.409
  158                  JUNCTION        0.88          3.372        0.378
  166                  JUNCTION        1.28          5.315        1.115
  179                  JUNCTION        0.35          3.010        0.000
  183                  JUNCTION        0.18          3.940        4.109
  201                  JUNCTION        0.29          2.641        4.133
  205                  JUNCTION        1.23          7.085        3.085
  209                  JUNCTION        0.81          8.200        0.000
  232                  JUNCTION        0.78          2.732        0.000
  257                  JUNCTION        1.33          8.372        5.148
  269                  JUNCTION        1.22          9.730        0.000
  281                  JUNCTION        0.71          2.802        0.000
  297                  JUNCTION        0.62          5.265        0.000
  304                  JUNCTION        0.49          4.581        0.000
  306                  JUNCTION        0.03          0.672        3.279
  323                  JUNCTION        0.25          3.077        9.573
  325                  JUNCTION        0.01          1.986        1.518
  333                  JUNCTION        1.26          5.474        0.000
  348                  JUNCTION        1.19          2.490        0.000
  351                  JUNCTION        1.23          8.442        0.438
  384                  JUNCTION        1.21          5.282        1.912
  387                  JUNCTION        0.35          3.552        6.298
  46                   JUNCTION        0.31         11.053        0.000
  64                   JUNCTION        0.34         11.320        0.000
  76                   JUNCTION        0.31         10.960        0.000
  974                  JUNCTION        0.17          2.575        1.578
  982                  JUNCTION        0.16          2.839        1.911
  JCT-100              JUNCTION        0.84          3.500        0.000
  JCT-102              JUNCTION        0.86          2.484        0.000
  JCT-104              JUNCTION        0.88          5.243        0.086
  JCT-106              JUNCTION        0.92          6.024        0.483
  JCT-108              JUNCTION        0.87          3.442        0.000
  JCT-110              JUNCTION        0.23          0.539        2.785
  JCT-112              JUNCTION        0.48          2.050        1.531
  JCT-114              JUNCTION        0.65          3.500        0.000
  JCT-116              JUNCTION        0.47          0.604        2.896
  JCT-118              JUNCTION        0.80          3.489        0.000
  JCT-12               JUNCTION        0.38          2.530        7.890
  JCT-120              JUNCTION        0.85          5.271        0.400
  JCT-122              JUNCTION        0.81          5.516        0.664
  JCT-124              JUNCTION        0.82          3.539        0.000
  JCT-126              JUNCTION        0.83          2.853        0.690
  JCT-132              JUNCTION        0.77          3.500        0.000
  JCT-138              JUNCTION        0.93         30.125        0.000
  JCT-14               JUNCTION        0.70          2.076       23.631
  JCT-140              JUNCTION        0.83         27.722        1.265
  JCT-142              JUNCTION        0.70         21.441        2.014
  JCT-144              JUNCTION        0.69         15.729        0.000
  JCT-146              JUNCTION        1.16         20.913        0.000
  JCT-148              JUNCTION        1.25         39.983        0.000
  JCT-150              JUNCTION        1.23         37.441        7.307
  JCT-152              JUNCTION        1.18         31.587        1.551
  JCT-154              JUNCTION        0.88          2.122        3.369
  JCT-156              JUNCTION        1.04         26.929        0.000
  JCT-18               JUNCTION        0.51          3.500        0.000
  JCT-180              JUNCTION        0.08          0.000        0.000
  JCT-20               JUNCTION        0.54          3.500        0.000
  JCT-22               JUNCTION        0.54          7.811        5.507
  JCT-24               JUNCTION        0.21          2.951        0.549
  JCT-26               JUNCTION        0.24          3.393        0.000
  JCT-28               JUNCTION        0.55          3.500        0.000
  JCT-30               JUNCTION        0.75          6.575        2.685
  JCT-32               JUNCTION        0.41          4.219        0.000
  JCT-34               JUNCTION        0.44          3.512        0.000
  JCT-36               JUNCTION        0.61          3.659        0.000
  JCT-38               JUNCTION        0.72          5.169        0.000
  JCT-40               JUNCTION        0.21          0.304        3.196
  JCT-42               JUNCTION        0.72          3.500        0.000
  JCT-44               JUNCTION        0.54          3.680        5.819
  JCT-46               JUNCTION        0.83          3.523        0.000
  JCT-48               JUNCTION        0.86          3.333        0.000
  JCT-50               JUNCTION        0.58          3.670        0.000
  JCT-52               JUNCTION        0.71          6.549        6.341
  JCT-56               JUNCTION        0.90          3.500        0.000
  JCT-58               JUNCTION        0.92          4.667        0.833
  JCT-66               JUNCTION        0.64          3.500        0.000
  JCT-70               JUNCTION        0.61          3.500        0.000
  JCT-72               JUNCTION        0.69          3.500        0.000
  JCT-74               JUNCTION        1.21          3.550        0.000
  JCT-76               JUNCTION        1.28          3.495        0.000
  JCT-78               JUNCTION        0.93          3.645        0.000
  JCT-80               JUNCTION        0.95          3.425        0.000
  JCT-82               JUNCTION        0.92          3.500        0.000
  JCT-84               JUNCTION        0.93          3.184        0.000
  JCT-86               JUNCTION        0.69          3.807        0.000
  JCT-88               JUNCTION        0.73          3.760        0.000
  JCT-90               JUNCTION        0.76          3.581        0.000
  JCT-92               JUNCTION        0.79          3.500        0.000
  JCT-94               JUNCTION        0.75          4.918        3.550
  JCT-98               JUNCTION        0.48          0.873        2.740
  
  
  *********************
  Node Flooding Summary
  *********************
  
  Flooding refers to all water that overflows a node, whether it ponds or not.
  --------------------------------------------------------------------------
                                                             Total   Maximum
                                 Maximum   Time of Max       Flood    Ponded
                        Hours       Rate    Occurrence      Volume     Depth
  Node                 Flooded       CFS   days hr:min    10^6 gal      Feet
  --------------------------------------------------------------------------
  136                     0.15    428.17      0  00:52       0.948     0.000
  137                     0.14     19.58      0  00:48       0.009     0.000
  179                     0.06    286.43      0  00:53       0.274     0.000
  209                     0.01    844.61      0  00:49       0.074     0.000
  232                     0.18    486.11      0  00:52       1.290     0.000
  260                     0.46    556.26      0  00:58       4.435     0.000
  269                     0.01    418.54      0  00:49       0.037     0.000
  281                     0.13    660.15      0  00:53       0.895     0.000
  297                     0.01    216.79      0  00:50       0.014     0.000
  304                     0.01     37.42      0  00:50       0.002     0.000
  333                     0.04      2.50      0  00:51       0.002     0.000
  348                     0.04    976.79      0  00:49       0.452     0.000
  46                      0.13     47.38      0  00:50       0.102     0.000
  64                      0.01      4.54      0  00:48       0.001     0.000
  76                      0.01      3.19      0  00:48       0.000     0.000
  JCT-100                 0.55      0.26      0  01:49       0.003     0.000
  JCT-102                 0.84      1.23      0  01:49       0.022     0.000
  JCT-108                 0.60      0.31      0  01:49       0.003     0.000
  JCT-114                 0.61      0.49      0  02:00       0.005     0.000
  JCT-118                 0.78      1.00      0  01:49       0.016     0.000
  JCT-124                 0.81      0.76      0  01:49       0.012     0.000
  JCT-132                 0.48      0.27      0  01:13       0.001     0.000
  JCT-138                 0.01      1.01      0  01:32       0.000     0.000
  JCT-144                 0.63      5.36      0  01:56       0.052     0.000
  JCT-146                 1.16      5.61      0  00:50       0.101     0.000
  JCT-148                 1.09      0.97      0  01:10       0.021     0.000
  JCT-18                  0.51      0.33      0  01:55       0.003     0.000
  JCT-180                 0.07     27.17      0  00:50       0.036     0.000
  JCT-20                  0.54      0.66      0  01:58       0.007     0.000
  JCT-26                  0.20      0.06      0  01:54       0.000     0.000
  JCT-28                  0.55      0.77      0  01:55       0.008     0.000
  JCT-32                  0.26      0.05      0  01:54       0.000     0.000
  JCT-34                  0.40      0.31      0  01:55       0.003     0.000
  JCT-36                  0.60      0.62      0  01:54       0.008     0.000
  JCT-38                  0.25      0.49      0  02:00       0.002     0.000
  JCT-42                  0.54      0.61      0  01:55       0.006     0.000
  JCT-46                  0.83      1.19      0  01:54       0.019     0.000
  JCT-48                  0.72      1.92      0  01:54       0.023     0.000
  JCT-50                  0.52      0.28      0  01:49       0.003     0.000
  JCT-56                  0.90      1.42      0  01:49       0.024     0.000
  JCT-66                  0.60      0.43      0  01:50       0.005     0.000
  JCT-70                  0.44      0.29      0  01:59       0.002     0.000
  JCT-72                  0.65      0.65      0  01:59       0.007     0.000
  JCT-74                  1.10      2.20      0  01:59       0.048     0.000
  JCT-76                  1.27     63.62      0  02:00       1.020     0.000
  JCT-78                  0.87      1.13      0  01:59       0.013     0.000
  JCT-80                  0.93      1.20      0  01:59       0.018     0.000
  JCT-82                  0.92      1.13      0  01:59       0.014     0.000
  JCT-84                  0.92      1.44      0  01:59       0.020     0.000
  JCT-86                  0.36      0.08      0  01:49       0.000     0.000
  JCT-88                  0.69      0.47      0  01:49       0.007     0.000
  JCT-90                  0.73      0.30      0  01:49       0.005     0.000
  JCT-92                  0.75      0.53      0  01:49       0.008     0.000
  1114                    0.84   1776.34      0  00:52       8.650     0.000
  187                     0.31   1502.75      0  00:57       8.025     0.000
  83                      0.25    169.99      0  01:36       0.688     0.000
  
  
  **********************
  Storage Volume Summary
  **********************
  
  --------------------------------------------------------------------------------------------------
                         Average     Avg  Evap Exfil       Maximum     Max    Time of Max    Maximum
                          Volume    Pcnt  Pcnt  Pcnt        Volume    Pcnt     Occurrence    Outflow
  Storage Unit          1000 ft3    Full  Loss  Loss      1000 ft3    Full    days hr:min        CFS
  --------------------------------------------------------------------------------------------------
  1114                     0.920      79     0     0         1.169     100       0  00:49     772.11
  1115                   211.205      40     0     0       276.906      52       0  01:26       1.93
  117                      7.500       0     0     0        38.359       0       0  00:52    1305.46
  163                      3.781       0     0     0        54.086       0       0  00:52     853.68
  17                       0.025       6     0     0         0.068      16       0  00:52     707.69
  187                     55.311      39     0     0       140.458     100       0  00:52     713.21
  229                     51.742       0     0     0       214.499       0       0  00:57    1274.95
  421                      0.029       0     0     0         0.093       0       0  00:50     523.14
  83                    1005.097      65     0     5      1557.120     100       0  01:34     351.80
  989                      0.201       1     0     0         7.963      58       0  00:50     272.75
  STOR-10                  0.111       2     0     0         0.152       2       0  01:54       3.50
  STOR-12                  0.045       2     0     0         0.071       3       0  01:58       3.50
  STOR-14                  9.903      21     0     0        14.788      31       0  01:03      17.50
  STOR-16                  0.747      25     0     0         1.983      67       0  02:00       3.31
  
  
  ***********************
  Outfall Loading Summary
  ***********************
  
  ---------------------------------------------------------------------------------------
                         Flow       Avg       Max       Total         Total         Total
                         Freq      Flow      Flow      Volume            TN           TSS
  Outfall Node           Pcnt       CFS       CFS    10^6 gal           lbs           lbs
  ---------------------------------------------------------------------------------------
  OFALL-10              97.31      9.40     13.82       0.365         0.000         0.000
  OFALL-12              83.71    666.95   1018.24      21.612         0.000         0.000
  VIADUCT1              93.06     38.27    191.91       1.391         0.000         0.000
  VIADUCT2              99.86     16.12     66.78       0.604         0.000         0.000
  ---------------------------------------------------------------------------------------
  System                93.48    730.73   1098.20      23.972         0.000         0.000
  
  
  ********************
  Link Flow Summary
  ********************
  
  -----------------------------------------------------------------------------
                                 Maximum  Time of Max   Maximum    Max/    Max/
                                  |Flow|   Occurrence   |Veloc|    Full    Full
  Link                 Type          CFS  days hr:min    ft/sec    Flow   Depth
  -----------------------------------------------------------------------------
  1001OF               CONDUIT    393.46     0  00:50      4.99    1.16    0.72
  105OF                CONDUIT    328.79     0  00:50      4.30    0.19    0.69
  1114                 CONDUIT     17.56     0  00:52     11.18    0.77    1.00
  117                  CONDUIT    335.82     0  01:00     16.47    0.21    0.70
  117OF                CONDUIT   1056.64     0  00:51      9.11    2.39    1.00
  1209                 CONDUIT      8.63     0  00:50      8.56    1.21    0.59
  1211                 CONDUIT      8.67     0  00:56      8.01    0.99    0.59
  1225                 CONDUIT     28.15     0  00:48      9.29    2.22    1.00
  1226                 CONDUIT      0.00     0  01:36      0.00    0.00    0.00
  1228                 CONDUIT      6.69     0  00:51     10.21    0.95    0.78
  1230                 CONDUIT      5.26     0  00:51      7.14    0.89    0.89
  1249                 CONDUIT      0.02     0  00:46      1.49    0.00    0.51
  1269                 CONDUIT      3.22     0  00:51      4.37    0.94    0.89
  1270                 CONDUIT      2.81     0  00:48      5.19    2.70    1.00
  1275                 CONDUIT      0.00     0  01:46      0.25    0.00    0.01
  1276                 CONDUIT      0.00     0  01:54      0.52    0.00    0.01
  1277                 CONDUIT    139.47     0  00:52     15.20    1.51    0.69
  1281                 CONDUIT      7.08     0  00:49      7.20    1.05    1.00
  1284                 CONDUIT      4.31     0  01:00      3.41    0.26    0.67
  1285                 CONDUIT      4.78     0  00:46      3.24    0.57    1.00
  1288                 CONDUIT    111.14     0  00:46      9.00    0.77    1.00
  1289                 CONDUIT     42.79     0  00:52      7.20    1.00    1.00
  1290                 CONDUIT      6.55     0  00:49      3.05    0.60    1.00
  1291                 CONDUIT     60.36     0  00:50     10.58    1.20    1.00
  1293                 CONDUIT     72.94     0  00:50      7.58    2.81    1.00
  1294                 CONDUIT      4.97     0  00:47      6.41    1.02    1.00
  1297                 CONDUIT      3.59     0  00:50      4.57    1.01    1.00
  1298                 CONDUIT      5.73     0  00:46      7.57    0.97    1.00
  1299                 CONDUIT      0.00     0  02:00      0.42    0.00    0.04
  1300                 CONDUIT      0.01     0  00:31      1.95    0.00    0.39
  1306                 CONDUIT     68.93     0  00:54      8.97    1.69    0.96
  1307                 CONDUIT    122.86     0  01:04      9.61    2.00    1.00
  1308                 CONDUIT     46.39     0  00:46      7.73    1.39    1.00
  1312                 CONDUIT      5.57     0  00:49      5.14    1.16    1.00
  1314                 CONDUIT      3.24     0  00:48      4.23    0.44    1.00
  1315                 CONDUIT     62.30     0  00:54      9.13    0.91    0.67
  1316                 CONDUIT      0.00     0  02:00      1.36    0.00    0.51
  1317                 CONDUIT     63.11     0  01:15      7.61    1.14    1.00
  1328                 CONDUIT      2.96     0  00:48      5.60    0.96    1.00
  136OF                CONDUIT    702.71     0  00:48      6.06    1.48    1.00
  13OF                 CONDUIT    169.87     0  00:55      4.14    0.58    0.79
  140OF                CONDUIT    675.08     0  01:04      5.82    1.94    1.00
  144                  CONDUIT     20.34     0  00:53      7.42    0.94    0.84
  144OF                CONDUIT    740.49     0  00:53      8.04    0.61    0.84
  150OF                CONDUIT    565.90     0  00:51      7.19    0.19    0.69
  158                  CONDUIT     54.46     0  01:15      7.94    0.42    1.00
  158OF                CONDUIT    640.73     0  01:15      5.52    0.42    1.00
  15OF                 CONDUIT    169.74     0  00:55      4.41    0.81    0.74
  163OF                CONDUIT    742.72     0  00:53      6.40    0.64    1.00
  166OF                CONDUIT     77.99     0  00:43      1.17    0.11    1.00
  1791OF               CONDUIT    223.55     0  00:46      2.96    0.31    1.00
  179OF                CONDUIT    432.51     0  00:50      3.73    0.52    1.00
  17OF                 CONDUIT    671.08     0  00:52      6.61    0.65    0.89
  183OF                CONDUIT    908.64     0  00:50      7.83    0.92    1.00
  187OF                CONDUIT    631.91     0  01:15      5.45    1.14    1.00
  18OF                 CONDUIT    169.80     0  00:53      3.80    0.86    0.86
  191OF                CONDUIT    619.29     0  00:54      5.71    1.10    1.00
  19OF                 CONDUIT      5.23     0  00:50      0.10    0.01    0.50
  200                  CONDUIT      4.46     0  00:49      5.20    0.99    0.71
  200OF                CONDUIT    531.17     0  00:53      5.46    0.56    0.86
  201OF                CONDUIT    287.86     0  00:50      3.80    1.22    0.69
  205OF                CONDUIT    624.47     0  00:50      5.38    0.53    1.00
  209OFA               CONDUIT    844.17     0  00:52      3.20    0.32    1.00
  229OF                CONDUIT   1270.55     0  00:58      4.81    0.67    1.00
  229OFB               CONDUIT      0.98     0  00:57      1.49    0.82    1.00
  232OF                CONDUIT    792.40     0  00:49      6.83    3.64    1.00
  244OF                CONDUIT    643.61     0  00:50      6.94    0.35    0.82
  257OF                CONDUIT    362.80     0  00:49      4.30    0.20    0.82
  25OF                 CONDUIT      0.37     0  00:51      0.02    0.00    0.18
  2601OF               CONDUIT    587.62     0  00:51      5.07    2.21    1.00
  260OF                CONDUIT    237.41     0  01:36      2.05    0.72    1.00
  267OF                CONDUIT    590.52     0  00:50      6.73    0.37    0.78
  269OF                CONDUIT   1187.38     0  00:52      6.71    0.32    1.00
  276OF                CONDUIT    597.10     0  00:51      5.91    0.51    0.89
  281OF                CONDUIT    723.61     0  00:50      6.24    2.85    1.00
  2851OF               CONDUIT    349.67     0  00:50      4.26    0.65    0.74
  285OF                CONDUIT    630.86     0  00:50      7.17    0.22    0.40
  297OF                CONDUIT    388.94     0  00:50      3.35    0.75    1.00
  306OF                CONDUIT    955.89     0  00:51      8.52    0.66    1.00
  3084                 CONDUIT     18.21     0  00:49      3.87    0.23    1.00
  3091                 CONDUIT     19.93     0  00:48      4.08    0.07    1.00
  31OF                 CONDUIT    282.58     0  00:50      3.89    0.17    0.68
  3231OF               CONDUIT   1002.55     0  00:49      5.75    0.41    0.71
  323OF                CONDUIT    991.28     0  00:51      8.76    1.47    1.00
  325OF                CONDUIT    252.96     0  00:52      2.18    0.28    1.00
  3289                 CONDUIT     59.75     0  00:56     10.90    3.09    1.00
  3293                 CONDUIT     16.28     0  01:08      4.70    0.24    1.00
  32OF                 CONDUIT    196.84     0  00:50      3.99    1.00    0.94
  3339                 CONDUIT     21.43     0  00:52      3.96    1.63    1.00
  3349                 CONDUIT     38.02     0  00:51      7.35    0.85    1.00
  3355                 CONDUIT      1.67     0  00:49      3.13    2.15    1.00
  3423                 CONDUIT     27.37     0  00:48      5.58    1.50    1.00
  3424                 CONDUIT     28.37     0  00:48      5.78    0.98    1.00
  348OF                CONDUIT    658.54     0  00:48      5.68    0.17    1.00
  3493                 CONDUIT     10.78     0  00:48      8.89    1.08    1.00
  3510                 CONDUIT     25.42     0  00:50      4.28    0.84    1.00
  3511                 CONDUIT      3.40     0  00:57      3.42    0.81    1.00
  351OF                CONDUIT    763.64     0  00:48      6.66    0.23    1.00
  3521                 CONDUIT      4.94     0  00:49      6.29    1.81    1.00
  3527                 CONDUIT      3.07     0  00:56      5.87    0.88    1.00
  3629                 CONDUIT      0.00     0  02:00      0.00    0.00    0.00
  3656                 CONDUIT     26.06     0  01:37      3.55    0.75    1.00
  3682                 CONDUIT      1.23     0  00:42      1.95    0.48    1.00
  3690                 CONDUIT     32.01     0  00:58      4.50    1.03    1.00
  371OF                CONDUIT   1155.08     0  00:50     12.51    0.46    0.82
  3843                 CONDUIT      0.00     0  01:35      0.00    0.00    0.00
  384OF                CONDUIT    572.68     0  00:51      4.94    0.53    1.00
  3860                 CONDUIT      0.01     0  01:59      1.01    0.00    0.39
  3873                 CONDUIT      3.93     0  00:49      5.79    0.58    0.88
  387OF                CONDUIT   1160.74     0  00:50      7.29    0.28    0.66
  4030                 CONDUIT    165.57     0  01:03      8.19    0.18    0.71
  4043                 CONDUIT     10.14     0  00:49      8.79    0.72    1.00
  407OF                CONDUIT    382.61     0  00:50      4.76    0.25    0.72
  4103                 CONDUIT     36.60     0  00:52      8.86    0.71    0.81
  4117                 CONDUIT      0.23     0  00:50      0.10    0.00    0.29
  4130                 CONDUIT      0.01     0  00:51      0.03    0.00    0.10
  4155                 CONDUIT      4.19     0  00:50      3.42    0.53    1.00
  4195                 CONDUIT    112.35     0  01:17     15.98    0.96    0.96
  4202                 CONDUIT     11.13     0  00:46      6.54    0.98    1.00
  4203                 CONDUIT      3.50     0  00:46      3.17    0.74    1.00
  421OF                CONDUIT    523.14     0  00:50      6.75    1.30    0.70
  4220                 CONDUIT     16.48     0  00:50      5.60    0.13    0.61
  4232                 CONDUIT     18.19     0  00:53      5.79    0.64    1.00
  4OF                  CONDUIT    169.95     0  00:54      4.53    0.58    0.73
  5002                 CONDUIT     68.51     0  00:50      9.44    1.89    1.00
  5003                 CONDUIT      6.82     0  00:48      8.68    0.98    1.00
  77OF                 CONDUIT   1013.73     0  00:50      8.77    1.03    1.00
  7OF                  CONDUIT    441.67     0  00:58      4.18    0.98    0.96
  879OF                CONDUIT    195.13     0  00:51      3.86    0.81    0.94
  882OF                CONDUIT     16.04     0  00:57      0.44    0.03    0.42
  893OF                CONDUIT    321.48     0  00:51      4.17    0.20    0.69
  8941OF               CONDUIT    191.91     0  00:50      4.68    0.20    0.39
  894OF                CONDUIT    324.08     0  00:50      7.85    0.20    0.39
  9561OF               CONDUIT    184.70     0  00:51      2.88    0.20    0.69
  9562OF               CONDUIT     66.78     0  00:51      2.22    0.13    0.29
  956OF                CONDUIT    156.01     0  00:51      2.69    0.20    0.55
  95OF                 CONDUIT    574.31     0  00:50      7.34    0.45    0.70
  974OF                CONDUIT    541.57     0  00:51      4.73    0.69    1.00
  982OF                CONDUIT    352.39     0  00:51      3.27    1.47    1.00
  989OF                CONDUIT    400.28     0  00:49      3.45    0.24    1.00
  CDT-101              CONDUIT      0.37     0  01:49      1.91    1.27    1.00
  CDT-103              CONDUIT      0.33     0  01:07      1.68    0.96    1.00
  CDT-105              CONDUIT      0.51     0  01:49      2.62    2.34    1.00
  CDT-107              CONDUIT      0.72     0  01:44      3.70    1.70    1.00
  CDT-109              CONDUIT      0.91     0  01:44      5.30    1.03    0.87
  CDT-11               CONDUIT     44.37     0  00:59      6.29    1.60    1.00
  CDT-111              CONDUIT      0.37     0  01:49      1.87    0.55    1.00
  CDT-113              CONDUIT      0.39     0  01:23      2.03    1.26    1.00
  CDT-115              CONDUIT      0.31     0  01:49      1.57    0.52    1.00
  CDT-117              CONDUIT      0.38     0  01:13      1.91    1.08    1.00
  CDT-119              CONDUIT      0.47     0  01:11      2.45    1.43    1.00
  CDT-121              CONDUIT      0.69     0  01:48      3.53    1.23    1.00
  CDT-123              CONDUIT      0.68     0  01:18      3.46    1.07    1.00
  CDT-125              CONDUIT      0.68     0  01:17      4.64    1.14    0.70
  CDT-127              CONDUIT      0.68     0  01:40      2.55    0.09    0.42
  CDT-129              CONDUIT      0.39     0  01:50      2.45    0.51    0.75
  CDT-13               CONDUIT     45.37     0  00:59      8.18    1.42    1.00
  CDT-131              CONDUIT      0.22     0  01:32      1.27    0.48    1.00
  CDT-133              CONDUIT      0.00     0  01:24      1.06    0.00    0.04
  CDT-135              CONDUIT      0.01     0  00:04      1.39    0.00    0.51
  CDT-137              CONDUIT      6.55     0  01:13      4.07    0.68    1.00
  CDT-141              CONDUIT      4.73     0  01:16      2.79    0.63    1.00
  CDT-143              CONDUIT      6.56     0  01:55      3.71    1.61    1.00
  CDT-147              CONDUIT      0.00     0  00:00      0.00    0.00    1.00
  CDT-149              CONDUIT     11.61     0  00:50      7.14    0.73    1.00
  CDT-15               CONDUIT     43.52     0  00:55     12.55    0.35    1.00
  CDT-151              CONDUIT     16.74     0  00:46     11.19    2.02    1.00
  CDT-153              CONDUIT     13.33     0  00:49      9.78    1.03    1.00
  CDT-155              CONDUIT      9.38     0  01:05      5.85    1.05    1.00
  CDT-157              CONDUIT      3.96     0  00:57      5.92    0.34    1.00
  CDT-159              CONDUIT     11.61     0  02:00      8.79    0.99    0.70
  CDT-161              CONDUIT     13.82     0  01:58     11.72    0.05    0.15
  CDT-163              CHANNEL     42.13     0  00:58      0.74    0.03    0.18
  CDT-165              CHANNEL    351.11     0  01:01      1.90    0.14    0.33
  CDT-167              CHANNEL   1117.68     0  00:59      2.62    0.66    0.48
  CDT-169              CHANNEL    804.42     0  01:06      2.54    0.66    0.73
  CDT-17               CONDUIT      0.34     0  01:55      2.21    0.42    0.73
  CDT-171              CHANNEL   1023.30     0  01:05      3.39    0.33    0.32
  CDT-175              CHANNEL   1018.24     0  01:06      5.16    0.03    0.13
  CDT-19               CONDUIT      0.80     0  01:49      4.12    1.00    1.00
  CDT-21               CONDUIT      1.13     0  01:27      5.85    1.07    1.00
  CDT-23               CONDUIT      5.08     0  01:28      7.04    0.70    1.00
  CDT-25               CONDUIT      0.63     0  01:54      3.52    0.96    1.00
  CDT-27               CONDUIT      1.12     0  01:50      5.72    1.00    1.00
  CDT-29               CONDUIT      1.11     0  01:27      5.64    1.04    1.00
  CDT-31               CONDUIT      3.98     0  01:27      5.28    1.38    1.00
  CDT-33               CONDUIT      0.86     0  01:47      4.36    1.05    1.00
  CDT-35               CONDUIT      1.10     0  01:38      5.61    0.99    1.00
  CDT-37               CONDUIT      1.18     0  01:27      6.01    1.04    1.00
  CDT-39               CONDUIT      2.51     0  01:27      3.19    1.14    1.00
  CDT-41               CONDUIT      0.25     0  01:54      1.29    0.43    1.00
  CDT-43               CONDUIT      0.67     0  01:27      3.41    1.60    1.00
  CDT-45               CONDUIT      1.14     0  01:54      5.80    1.00    1.00
  CDT-47               CONDUIT      0.85     0  01:11      4.32    1.12    1.00
  CDT-49               CONDUIT      1.14     0  01:16      3.26    1.50    1.00
  CDT-51               CONDUIT      0.34     0  01:28      1.74    0.62    1.00
  CDT-53               CONDUIT      0.94     0  01:49      5.41    1.61    0.83
  CDT-55               CONDUIT      1.32     0  01:50      7.56    0.71    0.83
  CDT-57               CONDUIT      0.45     0  01:07      2.30    1.04    1.00
  CDT-59               CONDUIT      0.64     0  01:48      3.27    1.86    1.00
  CDT-61               CONDUIT      0.37     0  01:50      3.53    0.41    0.52
  CDT-63               CONDUIT      0.76     0  01:50      4.51    0.67    0.80
  CDT-65               CONDUIT      0.71     0  01:24      3.64    1.32    0.99
  CDT-67               CONDUIT      1.57     0  01:32      6.34    0.89    0.82
  CDT-69               CONDUIT      0.83     0  01:38      4.21    1.00    1.00
  CDT-71               CONDUIT      0.98     0  01:27      4.97    1.00    1.00
  CDT-73               CONDUIT      0.51     0  01:15      2.60    1.01    1.00
  CDT-75               CONDUIT      0.87     0  01:23      4.60    1.34    0.99
  CDT-77               CONDUIT      0.42     0  01:13      2.14    1.06    1.00
  CDT-79               CONDUIT      0.93     0  01:50      4.75    0.99    1.00
  CDT-81               CONDUIT      0.35     0  01:32      1.79    1.14    1.00
  CDT-83               CONDUIT      0.53     0  01:03      2.94    0.99    1.00
  CDT-85               CONDUIT      0.61     0  01:42      3.12    1.01    1.00
  CDT-87               CONDUIT      0.50     0  01:41      2.62    1.03    1.00
  CDT-89               CONDUIT      0.54     0  01:54      2.79    1.01    1.00
  CDT-91               CONDUIT      0.71     0  01:15      3.64    1.27    1.00
  CDT-93               CONDUIT      0.97     0  01:49      5.33    1.19    0.87
  CDT-95               CONDUIT      2.58     0  01:45      6.92    0.29    0.52
  CDT-97               CONDUIT      0.34     0  01:49      1.76    0.59    1.00
  CDT-99               CONDUIT      0.43     0  01:32      2.18    1.53    1.00
  R255                 CHANNEL    461.53     0  01:35      4.24    0.01    0.13
  R26                  CHANNEL    171.85     0  00:55      0.74    0.02    0.36
  R74                  CHANNEL   1250.24     0  00:56      4.15    0.02    0.55
  R83                  CHANNEL    341.98     0  00:53      2.11    0.01    0.43
  RINFLOW              CHANNEL   1061.79     0  00:51      3.63    0.27    0.52
  PUMP-13              PUMP         3.31     0  02:00              0.95
  PUMP-15              PUMP        17.50     0  00:43              1.00
  PUMP-17              PUMP         3.50     0  01:06              1.00
  PUMP-19              PUMP         3.50     0  00:59              1.00
  PUMP1@1115-351       PUMP         0.96     0  00:48              1.00
  ORI-11               ORIFICE     97.44     0  01:04                      0.49
  WEIR1@260-261        WEIR        82.24     0  00:51                      0.97
  OLET-11              DUMMY        0.96     0  00:44
  
  
  ***************************
  Flow Classification Summary
  ***************************
  
  -------------------------------------------------------------------------------------
                      Adjusted    ---------- Fraction of Time in Flow Class ---------- 
                       /Actual         Up    Down  Sub   Sup   Up    Down  Norm  Inlet 
  Conduit               Length    Dry  Dry   Dry   Crit  Crit  Crit  Crit  Ltd   Ctrl  
  -------------------------------------------------------------------------------------
  1001OF                  1.00   0.00  0.00  0.00  1.00  0.00  0.00  0.00  0.00  0.00
  105OF                   1.00   0.00  0.01  0.00  0.99  0.00  0.00  0.00  0.78  0.00
  1114                    4.05   0.00  0.04  0.00  0.92  0.05  0.00  0.00  0.29  0.00
  117                     2.68   0.03  0.00  0.00  0.66  0.31  0.00  0.00  0.51  0.00
  117OF                   1.00   0.03  0.09  0.00  0.74  0.14  0.00  0.00  0.00  0.00
  1209                    1.00   0.00  0.00  0.00  0.09  0.91  0.00  0.00  0.00  0.00
  1211                    1.00   0.00  0.00  0.00  0.33  0.67  0.00  0.00  0.46  0.00
  1225                    1.00   0.00  0.00  0.00  0.99  0.01  0.00  0.00  0.82  0.00
  1226                    1.33   0.00  0.00  0.00  1.00  0.00  0.00  0.00  1.00  0.00
  1228                    2.95   0.03  0.04  0.00  0.02  0.92  0.00  0.00  0.57  0.00
  1230                    1.00   0.00  0.02  0.00  0.83  0.15  0.00  0.00  0.78  0.00
  1249                    1.00   0.00  0.00  0.00  0.84  0.16  0.00  0.00  0.61  0.00
  1269                    1.00   0.00  0.00  0.00  1.00  0.00  0.00  0.00  0.80  0.00
  1270                    1.00   0.00  0.00  0.00  1.00  0.00  0.00  0.00  0.58  0.00
  1275                    1.00   0.00  0.00  0.00  1.00  0.00  0.00  0.00  1.00  0.00
  1276                    1.00   0.00  0.00  0.00  1.00  0.00  0.00  0.00  0.10  0.00
  1277                    1.00   0.00  0.00  0.00  0.05  0.95  0.00  0.00  0.00  0.00
  1281                    1.00   0.00  0.00  0.00  0.90  0.10  0.00  0.00  0.45  0.00
  1284                    1.00   0.00  0.00  0.00  0.91  0.09  0.00  0.00  0.75  0.00
  1285                    1.00   0.00  0.00  0.00  1.00  0.00  0.00  0.00  0.21  0.00
  1288                    1.00   0.00  0.00  0.00  0.92  0.08  0.00  0.00  0.19  0.00
  1289                    1.00   0.00  0.00  0.00  1.00  0.00  0.00  0.00  0.37  0.00
  1290                    1.00   0.03  0.00  0.00  0.97  0.00  0.00  0.00  0.23  0.00
  1291                    2.79   0.00  0.00  0.00  0.85  0.15  0.00  0.00  0.06  0.00
  1293                    1.00   0.00  0.10  0.00  0.90  0.00  0.00  0.00  0.00  0.00
  1294                    1.00   0.00  0.12  0.00  0.87  0.00  0.00  0.00  0.36  0.00
  1297                    1.00   0.00  0.04  0.00  0.96  0.00  0.00  0.00  0.36  0.00
  1298                    1.00   0.00  0.04  0.00  0.81  0.15  0.00  0.00  0.70  0.00
  1299                    1.00   0.00  0.00  0.00  1.00  0.00  0.00  0.00  1.00  0.00
  1300                    1.00   0.00  0.00  0.00  0.59  0.41  0.00  0.00  0.52  0.00
  1306                    1.00   0.00  0.11  0.00  0.88  0.00  0.00  0.00  0.03  0.00
  1307                    1.00   0.03  0.00  0.00  0.94  0.03  0.00  0.00  0.01  0.00
  1308                    1.00   0.03  0.00  0.00  0.92  0.04  0.00  0.00  0.05  0.00
  1312                    1.00   0.08  0.05  0.00  0.67  0.20  0.00  0.00  0.42  0.00
  1314                    1.06   0.00  0.08  0.00  0.92  0.00  0.00  0.00  0.28  0.00
  1315                    1.00   0.00  0.00  0.00  0.29  0.71  0.00  0.00  0.46  0.00
  1316                    1.00   0.00  0.00  0.00  0.92  0.08  0.00  0.00  0.77  0.00
  1317                    1.00   0.00  0.04  0.00  0.81  0.14  0.00  0.00  0.07  0.00
  1328                    1.00   0.00  0.06  0.00  0.94  0.00  0.00  0.00  0.65  0.00
  136OF                   1.00   0.00  0.03  0.00  0.97  0.00  0.00  0.00  0.24  0.00
  13OF                    1.00   0.10  0.01  0.00  0.89  0.00  0.00  0.00  0.64  0.00
  140OF                   1.00   0.03  0.00  0.00  0.97  0.01  0.00  0.00  0.01  0.00
  144                     1.00   0.02  0.10  0.00  0.87  0.00  0.00  0.00  0.00  0.00
  144OF                   2.00   0.02  0.10  0.00  0.76  0.11  0.00  0.00  0.00  0.00
  150OF                   1.00   0.00  0.00  0.00  0.91  0.09  0.00  0.00  0.59  0.00
[...]
  CDT-19                  1.00   0.00  0.00  0.00  0.36  0.64  0.00  0.00  0.42  0.00
  CDT-21                  1.00   0.00  0.00  0.00  0.49  0.51  0.00  0.00  0.72  0.00
  CDT-23                  1.00   0.00  0.00  0.00  0.75  0.25  0.00  0.00  0.58  0.00
  CDT-25                  1.00   0.00  0.00  0.00  0.33  0.67  0.00  0.00  0.88  0.00
  CDT-27                  1.00   0.00  0.00  0.00  0.15  0.85  0.00  0.00  0.75  0.00
  CDT-29                  1.00   0.00  0.00  0.00  0.66  0.34  0.00  0.00  0.63  0.00
  CDT-31                  1.00   0.00  0.00  0.00  0.47  0.53  0.00  0.00  0.00  0.00
  CDT-33                  1.00   0.00  0.00  0.00  0.28  0.72  0.00  0.00  0.77  0.00
  CDT-35                  1.00   0.00  0.00  0.00  0.29  0.71  0.00  0.00  0.69  0.00
  CDT-37                  1.00   0.00  0.00  0.00  0.42  0.58  0.00  0.00  0.57  0.00
  CDT-39                  1.00   0.00  0.00  0.00  1.00  0.00  0.00  0.00  0.63  0.00
  CDT-41                  1.00   0.00  0.07  0.00  0.93  0.00  0.00  0.00  0.00  0.54
  CDT-43                  1.00   0.00  0.00  0.00  0.99  0.01  0.00  0.00  0.37  0.00
  CDT-45                  1.00   0.00  0.00  0.00  0.36  0.64  0.00  0.00  0.59  0.00
  CDT-47                  1.00   0.00  0.00  0.00  0.66  0.34  0.00  0.00  0.46  0.00
  CDT-49                  1.00   0.00  0.00  0.00  1.00  0.00  0.00  0.00  0.56  0.00
  CDT-51                  1.00   0.06  0.00  0.00  0.94  0.00  0.00  0.00  0.47  0.00
  CDT-53                  1.00   0.00  0.05  0.00  0.05  0.89  0.00  0.00  0.16  0.00
  CDT-55                  1.00   0.00  0.00  0.00  0.05  0.95  0.00  0.00  1.00  0.00
  CDT-57                  1.00   0.00  0.00  0.00  1.00  0.00  0.00  0.00  0.48  0.00
  CDT-59                  1.00   0.00  0.00  0.00  0.97  0.03  0.00  0.00  0.26  0.00
  CDT-61                  1.00   0.00  0.00  0.00  0.00  1.00  0.00  0.00  0.99  0.00
  CDT-63                  1.00   0.00  0.00  0.00  0.09  0.91  0.00  0.00  1.00  0.00
  CDT-65                  1.00   0.00  0.00  0.00  0.96  0.04  0.00  0.00  0.51  0.00
  CDT-67                  1.00   0.00  0.00  0.00  0.00  1.00  0.00  0.00  0.52  0.00
  CDT-69                  1.00   0.00  0.00  0.00  0.45  0.55  0.00  0.00  0.65  0.00
  CDT-71                  1.00   0.00  0.00  0.00  0.89  0.10  0.00  0.00  0.56  0.00
  CDT-73                  1.00   0.00  0.00  0.00  0.95  0.05  0.00  0.00  0.20  0.00
  CDT-75                  1.00   0.00  0.00  0.00  0.59  0.41  0.00  0.00  0.17  0.00
  CDT-77                  1.00   0.00  0.00  0.00  1.00  0.00  0.00  0.00  0.37  0.00
  CDT-79                  1.00   0.00  0.00  0.00  0.91  0.09  0.00  0.00  0.48  0.00
  CDT-81                  1.00   0.00  0.00  0.00  1.00  0.00  0.00  0.00  0.50  0.00
  CDT-83                  1.00   0.00  0.00  0.00  0.80  0.20  0.00  0.00  0.39  0.00
  CDT-85                  1.00   0.00  0.00  0.00  0.85  0.15  0.00  0.00  0.62  0.00
  CDT-87                  1.00   0.00  0.00  0.00  0.76  0.24  0.00  0.00  0.15  0.00
  CDT-89                  1.00   0.00  0.00  0.00  0.86  0.13  0.00  0.00  0.60  0.00
  CDT-91                  1.00   0.00  0.00  0.00  0.56  0.43  0.00  0.00  0.00  0.00
  CDT-93                  1.00   0.00  0.00  0.00  0.11  0.88  0.00  0.00  0.43  0.00
  CDT-95                  1.00   0.00  0.00  0.00  0.34  0.66  0.00  0.00  0.91  0.00
  CDT-97                  1.00   0.00  0.00  0.00  0.98  0.02  0.00  0.00  0.65  0.00
  CDT-99                  1.00   0.00  0.00  0.00  1.00  0.00  0.00  0.00  0.51  0.00
  R255                    2.35   0.13  0.00  0.00  0.87  0.00  0.00  0.00  0.57  0.00
  R26                     1.00   0.00  0.12  0.00  0.88  0.00  0.00  0.00  0.36  0.00
  R74                     1.49   0.08  0.04  0.00  0.88  0.00  0.00  0.00  0.13  0.00
  R83                     1.00   0.08  0.05  0.00  0.87  0.00  0.00  0.00  0.22  0.00
  RINFLOW                 1.00   0.00  0.00  0.00  1.00  0.00  0.00  0.00  0.57  0.00
  
  
  *************************
  Conduit Surcharge Summary
  *************************
  
  ----------------------------------------------------------------------------
                                                           Hours        Hours 
                         --------- Hours Full --------   Above Full   Capacity
  Conduit                Both Ends  Upstream  Dnstream   Normal Flow   Limited
  ----------------------------------------------------------------------------
  1001OF                      0.01      0.08      0.01      0.07         0.01
  105OF                       0.01      0.01      1.30      0.01         0.01
  1114                        1.20      1.20      1.32      0.01         0.01
  117                         0.01      0.01      0.25      0.01         0.01
  117OF                       1.13      1.13      1.25      0.47         0.01
  1209                        0.01      0.56      0.01      0.22         0.01
  1211                        0.01      0.01      0.28      0.01         0.01
  1225                        0.25      0.25      0.35      0.15         0.01
  1230                        0.01      0.01      1.29      0.01         0.01
  1249                        0.01      0.01      0.06      0.01         0.01
  1269                        0.01      0.01      0.24      0.01         0.01
  1270                        0.31      0.31      0.33      0.31         0.31
  1277                        0.01      0.31      0.01      0.25         0.01
  1281                        0.13      0.16      0.78      0.01         0.01
  1284                        0.01      0.01      1.21      0.01         0.01
  1285                        1.21      1.21      1.28      0.01         0.01
  1288                        1.21      1.21      1.23      0.01         0.01
  1289                        1.21      1.21      1.26      0.01         0.01
  1290                        0.78      0.78      1.27      0.01         0.01
  1291                        0.48      0.48      0.61      0.01         0.01
  1293                        0.71      0.71      0.75      0.44         0.01
  1294                        0.23      0.23      1.20      0.01         0.01
  1297                        0.14      0.14      1.35      0.01         0.01
  1298                        0.14      0.14      1.33      0.01         0.01
  1306                        0.01      0.01      1.26      0.95         0.01
  1307                        0.23      0.23      0.96      0.97         0.01
  1308                        1.23      1.24      1.23      0.38         0.37
  1312                        0.02      0.13      0.02      0.14         0.02
  1314                        0.08      0.08      1.38      0.01         0.01
  1316                        0.01      0.01      0.39      0.01         0.01
  1317                        0.82      0.82      0.88      0.45         0.45
  1328                        0.19      0.19      1.33      0.01         0.01
  136OF                       1.26      1.26      1.30      0.99         0.01
  140OF                       1.25      1.25      1.26      1.02         0.01
  144                         0.01      0.01      1.30      0.01         0.01
  144OF                       0.01      0.01      1.30      0.01         0.01
  150OF                       0.01      0.01      0.18      0.01         0.01
  158                         0.88      0.88      1.26      0.01         0.01
  158OF                       1.04      1.04      1.30      0.01         0.01
  163OF                       1.22      1.22      1.30      0.01         0.01
  166OF                       0.97      0.97      1.28      0.01         0.01
  1791OF                      0.35      0.35      1.22      0.01         0.01
  179OF                       0.35      0.35      1.25      0.01         0.01
  17OF                        0.01      0.01      0.19      0.01         0.01
  183OF                       0.18      0.18      1.22      0.01         0.01
  187OF                       0.97      0.97      1.04      0.45         0.45
  18OF                        0.01      0.08      0.01      0.01         0.01
  191OF                       0.01      0.19      0.01      0.15         0.01
  19OF                        0.01      0.01      0.01      0.01         0.01
  200                         0.01      0.14      0.01      0.01         0.01
  200OF                       0.01      0.01      1.20      0.01         0.01
  201OF                       0.01      0.01      0.29      0.11         0.01
  205OF                       0.35      0.35      1.24      0.01         0.01
  209OFA                      0.81      0.81      1.22      0.01         0.01
  229OF                       0.18      0.18      0.74      0.01         0.01
  229OFB                      0.80      0.80      1.06      0.01         0.01
  232OF                       0.97      0.97      1.01      0.29         0.01
  244OF                       0.01      0.01      1.24      0.01         0.01
  257OF                       0.01      0.01      1.33      0.01         0.01
  2601OF                      0.89      0.91      0.90      0.43         0.40
  260OF                       0.90      0.90      0.97      0.01         0.01
  267OF                       0.01      0.01      0.18      0.01         0.01
  269OF                       0.18      0.18      1.22      0.01         0.01
  276OF                       0.01      0.01      1.01      0.01         0.01
  281OF                       0.91      0.91      0.95      0.45         0.01
  297OF                       0.74      0.74      0.95      0.01         0.01
  306OF                       0.03      0.03      0.95      0.01         0.01
  3084                        0.06      0.06      1.24      0.01         0.01
  3091                        1.19      1.19      1.24      0.01         0.01
  31OF                        0.01      0.01      1.18      0.01         0.01
  3231OF                      0.01      0.01      0.25      0.01         0.01
  323OF                       0.03      0.03      0.67      0.13         0.01
  325OF                       0.06      0.06      0.33      0.01         0.01
  3289                        0.01      0.01      1.26      1.26         0.01
  3293                        0.01      0.01      0.15      0.01         0.01
  32OF                        0.01      0.01      0.01      0.01         0.01
  3339                        0.15      0.15      0.17      0.02         0.02
  3349                        0.17      0.17      0.48      0.01         0.01
  3355                        0.06      0.53      0.06      0.54         0.06
  3423                        0.31      0.31      0.34      0.01         0.01
  3424                        0.34      0.34      0.49      0.01         0.01
  348OF                       1.19      1.19      1.25      0.01         0.01
  3493                        0.01      0.01      0.16      0.10         0.01
  3510                        0.61      0.61      0.81      0.01         0.01
  3511                        0.78      0.78      1.01      0.01         0.01
  351OF                       1.11      1.11      1.25      0.01         0.01
  3521                        0.23      0.23      1.31      0.38         0.01
  3527                        0.06      0.06      1.37      0.01         0.01
  3656                        0.76      0.76      0.82      0.01         0.01
  3682                        1.17      1.17      1.31      0.01         0.01
  3690                        0.71      0.71      0.78      0.14         0.16
  371OF                       0.01      0.01      0.67      0.01         0.01
  384OF                       1.11      1.11      1.23      0.01         0.01
  3873                        0.01      0.01      1.35      0.01         0.01
  387OF                       0.01      0.01      0.35      0.01         0.01
  4043                        0.02      0.02      1.26      0.01         0.01
  407OF                       0.01      0.01      1.30      0.01         0.01
  4103                        0.01      0.01      0.12      0.01         0.01
  4155                        1.22      1.22      1.26      0.01         0.01
  4195                        0.01      0.01      0.84      0.01         0.01
  4202                        0.23      0.23      1.25      0.01         0.01
  4203                        1.22      1.22      1.27      0.01         0.01
  421OF                       0.01      0.04      0.01      0.10         0.01
  4220                        0.01      0.01      1.09      0.01         0.01
  4232                        1.22      1.22      1.30      0.01         0.01
  5002                        0.19      0.78      0.19      0.85         0.19
  5003                        0.07      0.07      0.30      0.01         0.01
  77OF                        1.12      1.13      1.16      0.07         0.05
  7OF                         0.01      0.19      0.01      0.01         0.01
  879OF                       0.01      0.01      0.08      0.01         0.01
  893OF                       0.01      0.01      1.23      0.01         0.01
  9561OF                      0.01      0.01      1.19      0.01         0.01
  974OF                       0.40      0.40      0.95      0.01         0.01
  982OF                       0.33      0.33      0.40      0.01         0.02
  989OF                       0.82      0.82      1.25      0.01         0.01
  CDT-101                     0.86      0.86      0.88      0.40         0.01
  CDT-103                     0.88      0.88      0.92      0.01         0.01
  CDT-105                     0.87      0.92      0.87      0.94         0.87
  CDT-107                     0.23      0.87      0.23      0.87         0.23
  CDT-109                     0.01      0.23      0.01      0.15         0.01
  CDT-11                      0.21      0.26      0.37      0.22         0.13
  CDT-111                     0.48      0.48      0.88      0.01         0.01
  CDT-113                     0.61      0.65      0.61      0.26         0.17
  CDT-115                     0.47      0.47      0.80      0.01         0.01
  CDT-117                     0.80      0.80      0.85      0.02         0.02
  CDT-119                     0.81      0.85      0.81      0.43         0.37
  CDT-121                     0.81      0.81      0.82      0.77         0.77
  CDT-123                     0.82      0.82      0.83      0.83         0.82
  CDT-125                     0.01      0.83      0.01      0.82         0.01
  CDT-129                     0.01      0.01      0.82      0.01         0.01
  CDT-13                      0.26      0.37      0.70      0.18         0.01
  CDT-131                     0.77      0.77      0.85      0.01         0.01
  CDT-135                     0.01      0.01      1.19      0.01         0.01
  CDT-137                     0.82      0.82      0.89      0.01         0.01
  CDT-141                     0.69      0.69      0.82      0.01         0.02
  CDT-143                     0.69      0.69      0.69      0.09         0.15
  CDT-147                     0.69      1.16      0.69      0.01         0.69
  CDT-149                     1.16      1.16      1.25      0.01         0.01
  CDT-15                      0.70      0.70      1.15      0.01         0.01
  CDT-151                     1.23      1.23      1.25      1.08         0.01
  CDT-153                     1.18      1.18      1.23      0.01         0.01
  CDT-155                     0.88      0.88      1.18      0.09         0.01
  CDT-157                     0.88      0.88      1.04      0.01         0.01
  CDT-159                     0.01      0.88      0.01      0.01         0.01
  CDT-17                      0.01      0.01      0.51      0.01         0.01
  CDT-19                      0.51      0.51      0.54      0.01         0.01
  CDT-21                      0.54      0.54      0.78      0.10         0.04
  CDT-23                      0.54      0.54      1.13      0.01         0.01
  CDT-25                      0.21      0.21      0.24      0.01         0.01
  CDT-27                      0.24      0.24      0.55      0.01         0.01
  CDT-29                      0.55      0.55      0.95      0.01         0.01
  CDT-31                      0.54      0.75      0.54      0.38         0.16
  CDT-33                      0.41      0.41      0.44      0.31         0.31
  CDT-35                      0.44      0.44      0.61      0.01         0.01
  CDT-37                      0.61      0.61      0.93      0.07         0.07
  CDT-39                      0.72      0.72      0.75      0.18         0.18
  CDT-41                      0.21      0.21      0.72      0.01         0.01
  CDT-43                      0.54      0.72      0.54      0.50         0.33
  CDT-45                      0.54      0.54      0.83      0.21         0.21
  CDT-47                      0.83      0.83      0.92      0.83         0.83
  CDT-49                      0.84      0.86      0.84      0.36         0.30
  CDT-51                      0.58      0.58      0.71      0.01         0.01
  CDT-53                      0.01      0.71      0.01      0.71         0.01
  CDT-55                      0.01      0.01      0.90      0.01         0.01
  CDT-57                      0.90      0.90      0.92      0.08         0.08
  CDT-59                      0.92      0.92      0.93      0.95         0.92
  CDT-63                      0.01      0.01      0.64      0.01         0.01
  CDT-65                      0.01      0.64      0.01      0.70         0.01
  CDT-69                      0.61      0.61      0.69      0.01         0.01
  CDT-71                      0.69      0.69      1.21      0.01         0.01
  CDT-73                      1.21      1.21      1.28      1.10         1.10
  CDT-75                      0.01      1.28      0.01      1.28         0.01
  CDT-77                      0.93      0.93      0.95      0.89         0.90
  CDT-79                      0.95      0.95      1.21      0.01         0.01
  CDT-81                      0.92      0.92      0.93      0.92         0.92
  CDT-83                      0.93      0.93      0.95      0.01         0.01
  CDT-85                      0.69      0.69      0.73      0.37         0.37
  CDT-87                      0.73      0.73      0.76      0.69         0.69
  CDT-89                      0.76      0.76      0.79      0.73         0.73
  CDT-91                      0.75      0.79      0.75      0.26         0.18
  CDT-93                      0.01      0.75      0.01      0.75         0.01
  CDT-97                      0.48      0.48      0.84      0.01         0.01
  CDT-99                      0.84      0.84      0.86      0.82         0.82
  
  
  ***************
  Pumping Summary
  ***************
  
  ---------------------------------------------------------------------------------------------------------
                                                  Min       Avg       Max     Total     Power    % Time Off
                        Percent   Number of      Flow      Flow      Flow    Volume     Usage    Pump Curve
  Pump                 Utilized   Start-Ups       CFS       CFS       CFS  10^6 gal     Kw-hr    Low   High
  ---------------------------------------------------------------------------------------------------------
  PUMP-13                 47.88           1      0.00      2.95      3.31     0.077      6.50    0.0    0.0
  PUMP-15                 62.89           5      0.00     12.41     17.50     0.421     49.12    0.0    0.3
  PUMP-17                  8.80          80      0.00      3.36      3.50     0.016      0.75    0.0   22.1
  PUMP-19                 29.96         113      0.00      3.50      3.50     0.056      3.69    0.0   76.6
  PUMP1@1115-351          60.05           1      0.00      0.96      0.96     0.031      0.42    0.0  100.0
  

  Analysis begun on:  Tue Nov 20 16:40:25 2018
  Analysis ended on:  Tue Nov 20 16:40:26 2018
  Total elapsed time: 00:00:01