
  EPA STORM WATER MANAGEMENT MODEL - VERSION 5.1 (Build 5.1.012)
  --------------------------------------------------------------

  WARNING 06: dry weather time step increased to the wet weather time step 
  
  *********************************************************
  NOTE: The summary statistics displayed in this report are
  based on results found at every computational time step,  
  not just on results from each reporting time step.
  *********************************************************
  
  ****************
  Analysis Options
  ****************
  Flow Units ............... CFS
  Process Models:
    Rainfall/Runoff ........ YES
    RDII ................... NO
    Snowmelt ............... NO
    Groundwater ............ NO
    Flow Routing ........... NO
    Water Quality .......... NO
  Infiltration Method ...... HORTON
  Starting Date ............ 01/01/2002 00:00:00
  Ending Date .............. 01/02/2002 12:00:00
  Antecedent Dry Days ...... 5.0
  Report Time Step ......... 00:05:00
  Wet Time Step ............ 01:00:05
  Dry Time Step ............ 01:00:05
  
  
  **************************        Volume         Depth
  Runoff Quantity Continuity     acre-feet        inches
  **************************     ---------       -------
  Total Precipitation ......         0.038         1.000
  Evaporation Loss .........         0.000         0.006
  Infiltration Loss ........         0.028         0.750
  Surface Runoff ...........         0.009         0.237
  Final Storage ............         0.000         0.007
  Continuity Error (%) .....        -0.098
  
  
  **************************        Volume        Volume
  Flow Routing Continuity        acre-feet      10^6 gal
  **************************     ---------     ---------
  Dry Weather Inflow .......         0.000         0.000
  Wet Weather Inflow .......         0.009         0.003
  Groundwater Inflow .......         0.000         0.000
  RDII Inflow ..............         0.000         0.000
  External Inflow ..........         0.000         0.000
  External Outflow .........         0.009         0.003
  Flooding Loss ............         0.000         0.000
  Evaporation Loss .........         0.000         0.000
  Exfiltration Loss ........         0.000         0.000
  Initial Stored Volume ....         0.000         0.000
  Final Stored Volume ......         0.000         0.000
  Continuity Error (%) .....         0.000
  
  
  ***************************
  Subcatchment Runoff Summary
  ***************************
  
  --------------------------------------------------------------------------------------------------------
                            Total      Total      Total      Total      Total       Total     Peak  Runoff
                           Precip      Runon       Evap      Infil     Runoff      Runoff   Runoff   Coeff
  Subcatchment                 in         in         in         in         in    10^6 gal      CFS
  --------------------------------------------------------------------------------------------------------
  HUFF_1ST                   1.00       0.00       0.01       0.75       0.24        0.00     0.00   0.238
  HUFF_2                     1.00       0.00       0.01       0.75       0.24        0.00     0.00   0.237
  HUFF_3RD                   1.00       0.00       0.01       0.75       0.24        0.00     0.00   0.236
  HUFF_4TH                   1.00       0.00       0.01       0.75       0.24        0.00     0.00   0.237
  

  Analysis begun on:  Tue Nov 20 16:40:21 2018
  Analysis ended on:  Tue Nov 20 16:40:21 2018
  Total elapsed time: < 1 sec