
  EPA STORM WATER MANAGEMENT MODEL - VERSION 5.1 (Build 5.1.012)
  --------------------------------------------------------------

  
  ERROR 205: invalid keyword RULE_STEP at line 27 of [OPTION] section:
  RULE_STEP
  
  ERROR 205: invalid keyword SURCHARGE_METHOD at line 32 of [OPTION] section:
  SURCHARGE_METHOD

  Analysis begun on:  Tue Nov 20 16:40:26 2018
  Analysis ended on:  Tue Nov 20 16:40:26 2018
  Total elapsed time: < 1 sec