
  EPA STORM WATER MANAGEMENT MODEL - VERSION 5.1 (Build 5.1.012)
  --------------------------------------------------------------

  WARNING 03: negative offset ignored for Link OR1@82309b-15009b
  
  *************
  Element Count
  *************
  Number of rain gages ...... 0
  Number of subcatchments ... 0
  Number of nodes ........... 61
  Number of links ........... 58
  Number of pollutants ...... 0
  Number of land uses ....... 0
  
  
  ************
  Node Summary
  ************
                                           Invert      Max.    Ponded    External
  Name                 Type                 Elev.     Depth      Area    Inflow  
  -------------------------------------------------------------------------------
  10309                JUNCTION            101.60      9.40       0.0
  10309a               JUNCTION            101.60      9.40       0.0
  10309b               JUNCTION            101.60      9.40       0.0
  10309c               JUNCTION            101.60      9.40       0.0
  10309d               JUNCTION            101.60      9.40       0.0
  10309e               JUNCTION            101.60      9.40       0.0
  15009                JUNCTION            111.50     13.50       0.0
  15009a               JUNCTION            111.50     13.50       0.0
  15009b               JUNCTION            111.50     13.50       0.0
  15009c               JUNCTION            111.50     13.50       0.0
  15009d               JUNCTION            111.50     13.50       0.0
  15009e               JUNCTION            121.00     13.50       0.0
  16009                JUNCTION            102.00     18.00       0.0
  16009a               JUNCTION            102.00     18.00       0.0
  16009b               JUNCTION            102.00     18.00       0.0
  16009c               JUNCTION            102.00     18.00       0.0
  16009d               JUNCTION            102.00     18.00       0.0
  16009e               JUNCTION            102.00     18.00       0.0
  16109                JUNCTION            102.80     22.20       0.0    Yes
  16109a               JUNCTION            102.80     22.20       0.0
  16109b               JUNCTION            102.80     22.20       0.0
  16109c               JUNCTION            102.80     22.20       0.0
  16109d               JUNCTION            102.80     22.20       0.0
  16109e               JUNCTION            102.80     22.20       0.0
  80408                JUNCTION            120.00     13.40       0.0    Yes
  80408a               JUNCTION            124.60     13.40       0.0    Yes
  80408b               JUNCTION            124.60     13.40       0.0    Yes
  80408c               JUNCTION            124.60     13.40       0.0    Yes
  80408d               JUNCTION            124.60     13.40       0.0    Yes
  80408e               JUNCTION            124.60     13.40       0.0    Yes
  80608                JUNCTION            118.30     16.70       0.0
  80608a               JUNCTION            118.30     16.70       0.0
  80608b               JUNCTION            118.30     16.70       0.0
  80608c               JUNCTION            118.30     16.70       0.0
  80608d               JUNCTION            118.30     16.70       0.0
  80608e               JUNCTION            118.30     16.70       0.0
  81009                JUNCTION            128.20      8.80       0.0    Yes
  81009a               JUNCTION            128.20      8.80       0.0    Yes
  81009b               JUNCTION            128.20      8.80       0.0    Yes
  81009c               JUNCTION            128.20      8.80       0.0    Yes
  81009d               JUNCTION            128.20      8.80       0.0    Yes
  81009e               JUNCTION            128.20      8.80       0.0    Yes
  81309                JUNCTION            117.50     12.50       0.0
  81309a               JUNCTION            117.50     12.50       0.0
  81309b               JUNCTION            117.50     12.50       0.0
  81309c               JUNCTION            117.50     12.50       0.0
  81309d               JUNCTION            117.50     12.50       0.0
  81309e               JUNCTION            117.50     12.50       0.0
  82308d               JUNCTION            112.30     42.70       0.0
  82309                JUNCTION            112.30     42.70       0.0    Yes
  82309a               JUNCTION            112.30     42.70       0.0    Yes
  82309b               JUNCTION            112.30     42.70       0.0    Yes
  82309c               JUNCTION            112.30     42.70       0.0    Yes
  WetWell              JUNCTION            112.30     21.00       0.0    Yes
  10208                OUTFALL              89.90      9.00       0.0
  10208b               OUTFALL              89.90      9.00       0.0
  10208c               OUTFALL              89.90      9.00       0.0
  10208d               OUTFALL              89.90      9.00       0.0
  10208e               OUTFALL              89.90      9.00       0.0
  10208a               OUTFALL              89.90      9.00       0.0
  82309d               STORAGE             112.30     42.70       0.0    Yes
  
  
  ************
  Link Summary
  ************
  Name             From Node        To Node          Type            Length    %Slope Roughness
  ---------------------------------------------------------------------------------------------
  1030e            10309e           10208e           CONDUIT         4500.0    0.2600    0.0160
  1030             10309            10208            CONDUIT         4500.0    0.2600    0.2000
  1030a            10309a           10208a           CONDUIT         4500.0    0.2600    0.0160
  1030b            10309b           10208b           CONDUIT         4500.0    0.2600    0.0160
  1030c            10309c           10208c           CONDUIT         4500.0    0.2600    0.0160
  1030d            10309d           10208d           CONDUIT         4500.0    0.2600    0.0160
  1570             15009            16009            CONDUIT         5000.0    0.1900    0.0154
  1570a            15009a           16009a           CONDUIT         5000.0    0.1900    0.0154
  1570b            15009b           16009b           CONDUIT         5000.0    0.1900    0.0154
  1570c            15009c           16009c           CONDUIT          100.0    9.5432    0.0154
  1570d            15009d           16009d           CONDUIT         5000.0    0.1900    0.0154
  1570e            15009e           16009e           CONDUIT         5000.0    0.3800    0.0154
  1600             16009            16109            CONDUIT          500.0   -0.1600    0.0150
  1600a            16009a           16109a           CONDUIT          500.0   -0.1600    0.0150
  1600b            16009b           16109b           CONDUIT          500.0   -0.1600    0.0150
  1600c            16009c           16109c           CONDUIT          500.0   -0.1600    0.0150
  1600d            16009d           16109d           CONDUIT          500.0   -0.1600    0.0150
  1600e            16009e           16109e           CONDUIT          500.0   -0.1600    0.0150
  1602             82309            16109            CONDUIT         5000.0    0.1900    0.0340
  1602a            82309a           16109a           CONDUIT         5000.0    0.1900    0.0340
  1602b            82309b           16109b           CONDUIT         5000.0    0.1900    0.0340
  1602c            82309c           16109c           CONDUIT         5000.0    0.1900    0.0340
  1602d            82309d           16109d           CONDUIT         5000.0    0.1900    0.0340
  1602e            WetWell          16109e           CONDUIT         5000.0    0.1900    0.0340
  1630             16009            10309            CONDUIT          300.0    0.1333    0.0150
  1630a            16009a           10309a           CONDUIT          300.0    0.1333    0.0150
  1630b            16009b           10309b           CONDUIT          300.0    0.1333    0.0150
  1630c            16009c           10309c           CONDUIT          300.0    0.1333    0.0150
  1630d            16009d           10309d           CONDUIT          300.0    0.1333    0.0150
  1630e            16009e           10309e           CONDUIT          300.0    0.1333    0.0150
  8040             80408            80608            CONDUIT         1800.0    0.0944    0.0150
  8040a            80408a           80608a           CONDUIT         1800.0    0.3500    0.0150
  8040b            80408b           80608b           CONDUIT         1800.0    0.3500    0.0150
  8040c            80408c           80608c           CONDUIT         1800.0    0.3500    0.0150
  8040d            80408d           80608d           CONDUIT         1800.0    0.3500    0.0150
  8040e            80408e           80608e           CONDUIT         1800.0    0.3500    0.0150
  8060             80608            82309            CONDUIT         2075.0    0.1831    0.0150
  8060a            80608a           82309a           CONDUIT         2075.0    0.1831    0.0150
  8060b            80608b           82309b           CONDUIT         2075.0    0.1831    0.0150
  8060c            80608c           82309c           CONDUIT         2075.0    0.1831    0.0150
  8060d            80608d           82309d           CONDUIT         2075.0    0.1831    0.0150
  8060e            80608e           WetWell          CONDUIT         2075.0    0.1831    0.0150
  8100             81009            81309            CONDUIT         5100.0    0.2098    0.0150
  8100a            81009a           81309a           CONDUIT         5100.0    0.2098    0.0150
  8100b            81009b           81309b           CONDUIT         5100.0    0.2098    0.0150
  8100c            81009c           81309c           CONDUIT         5100.0    0.2098    0.0150
  8100d            81009d           81309d           CONDUIT         5100.0    0.2098    0.0150
  8100e            81009e           81309e           CONDUIT         5100.0    0.2098    0.0150
  8130             81309            15009            CONDUIT         3500.0    0.1714    0.0150
  8130a            81309a           15009a           CONDUIT         3500.0    0.1714    0.0150
  8130b            81309b           15009b           CONDUIT         3500.0    0.1714    0.0150
  8130c            81309c           15009c           CONDUIT         3500.0    0.1714    0.0150
  8130d            81309d           15009d           CONDUIT         3500.0    0.1714    0.0150
  8130e            81309e           15009e           CONDUIT         3500.0   -0.1000    0.0150
  Pump1            WetWell          15009e           TYPE3 PUMP  
  OR1@82309d-82308d 82309d           82308d           ORIFICE     
  OR1@82309b-15009b 82309b           15009b           ORIFICE     
  WEIR1@82309c-15009c 82309c           15009c           WEIR        
  
  
  *********************
  Cross Section Summary
  *********************
                                        Full     Full     Hyd.     Max.   No. of     Full
  Conduit          Shape               Depth     Area     Rad.    Width  Barrels     Flow
  ---------------------------------------------------------------------------------------
  1030e            TRIANGULAR           9.00   243.00     4.27    54.00        1  3028.41
  1030             TRIANGULAR           9.00   243.00     4.27    54.00        1   242.27
  1030a            TRIANGULAR           9.00   243.00     4.27    54.00        1  3028.41
  1030b            TRIANGULAR           9.00   243.00     4.27    54.00        1  3028.41
  1030c            TRIANGULAR           9.00   243.00     4.27    54.00        1  3028.41
  1030d            TRIANGULAR           9.00   243.00     4.27    54.00        1  3028.41
  1570             CIRCULAR             5.50    23.76     1.38     5.50        1   123.56
  1570a            CIRCULAR             5.50    23.76     1.38     5.50        1   123.56
  1570b            CIRCULAR             5.50    23.76     1.38     5.50        1   123.56
  1570c            CIRCULAR             5.50    23.76     1.38     5.50        1   875.71
  1570d            CIRCULAR             5.50    23.76     1.38     5.50        1   123.56
  1570e            CIRCULAR             5.50    23.76     1.38     5.50        1   174.75
  1600             CIRCULAR             6.00    28.27     1.50     6.00        1   146.82
  1600a            CIRCULAR             6.00    28.27     1.50     6.00        1   146.82
  1600b            CIRCULAR             6.00    28.27     1.50     6.00        1   146.82
  1600c            CIRCULAR             6.00    28.27     1.50     6.00        1   146.82
  1600d            CIRCULAR             6.00    28.27     1.50     6.00        1   146.82
  1600e            CIRCULAR             6.00    28.27     1.50     6.00        1   146.82
  1602             CIRCULAR             5.00    19.63     1.25     5.00        1    43.41
  1602a            CIRCULAR             5.00    19.63     1.25     5.00        1    43.41
  1602b            CIRCULAR             5.00    19.63     1.25     5.00        1    43.41
  1602c            CIRCULAR             5.00    19.63     1.25     5.00        1    43.41
  1602d            CIRCULAR             5.00    19.63     1.25     5.00        1    43.41
  1602e            CIRCULAR             5.00    19.63     1.25     5.00        1    43.41
  1630             TRIANGULAR           9.00   243.00     4.27    54.00        1  2313.27
  1630a            TRIANGULAR           9.00   243.00     4.27    54.00        1  2313.27
  1630b            TRIANGULAR           9.00   243.00     4.27    54.00        1  2313.27
  1630c            TRIANGULAR           9.00   243.00     4.27    54.00        1  2313.27
  1630d            TRIANGULAR           9.00   243.00     4.27    54.00        1  2313.27
  1630e            TRIANGULAR           9.00   243.00     4.27    54.00        1  2313.27
  8040             FORCE_MAIN           4.00    12.57     1.00     4.00        1     0.04
  8040a            CIRCULAR             4.00    12.57     1.00     4.00        1    73.65
  8040b            CIRCULAR             4.00    12.57     1.00     4.00        1    73.65
  8040c            CIRCULAR             4.00    12.57     1.00     4.00        1    73.65
  8040d            CIRCULAR             4.00    12.57     1.00     4.00        1    73.65
  8040e            CIRCULAR             4.00    12.57     1.00     4.00        1    73.65
  8060             CIRCULAR             4.00    12.57     1.00     4.00        1    53.27
  8060a            CIRCULAR             4.00    12.57     1.00     4.00        1    53.27
  8060b            CIRCULAR             4.00    12.57     1.00     4.00        1    53.27
  8060c            CIRCULAR             4.00    12.57     1.00     4.00        1    53.27
  8060d            CIRCULAR             4.00    12.57     1.00     4.00        1    53.27
  8060e            CIRCULAR             4.00    12.57     1.00     4.00        1    53.27
  8100             CIRCULAR             4.50    15.90     1.13     4.50        1    78.06
  8100a            CIRCULAR             4.50    15.90     1.13     4.50        1    78.06
  8100b            CIRCULAR             4.50    15.90     1.13     4.50        1    78.06
  8100c            CIRCULAR             4.50    15.90     1.13     4.50        1    78.06
  8100d            CIRCULAR             4.50    15.90     1.13     4.50        1    78.06
  8100e            CIRCULAR             4.50    15.90     1.13     4.50        1    78.06
  8130             CIRCULAR             4.50    15.90     1.13     4.50        1    70.56
  8130a            CIRCULAR             4.50    15.90     1.13     4.50        1    70.56
  8130b            CIRCULAR             4.50    15.90     1.13     4.50        1    70.56
  8130c            CIRCULAR             4.50    15.90     1.13     4.50        1    70.56
  8130d            CIRCULAR             4.50    15.90     1.13     4.50        1    70.56
  8130e            CIRCULAR             4.50    15.90     1.13     4.50        1    53.89
  
  
  
  *********************************************************
  NOTE: The summary statistics displayed in this report are
  based on results found at every computational time step,  
  not just on results from each reporting time step.
  *********************************************************
  
  ****************
  Analysis Options
  ****************
  Flow Units ............... CFS
  Process Models:
    Rainfall/Runoff ........ NO
    RDII ................... NO
    Snowmelt ............... NO
    Groundwater ............ NO
    Flow Routing ........... YES
    Ponding Allowed ........ YES
    Water Quality .......... NO
  Flow Routing Method ...... DYNWAVE
  Starting Date ............ 01/01/1988 00:00:00
  Ending Date .............. 01/01/1988 06:00:00
  Antecedent Dry Days ...... 0.0
  Report Time Step ......... 00:01:00
  Routing Time Step ........ 60.00 sec
  Variable Time Step ....... YES
  Maximum Trials ........... 8
  Number of Threads ........ 8
  Head Tolerance ........... 0.005000 ft
  
  
  *********************
  Control Actions Taken
  *********************
   01/01/1988: 00:00:00 Link Pump1 setting changed to   0.60 by Control Pump1
   01/01/1988: 00:00:01 Link Pump1 setting changed to   0.60 by Control Pump1
   01/01/1988: 00:00:24 Link Pump1 setting changed to   0.60 by Control Pump1
   01/01/1988: 00:01:24 Link Pump1 setting changed to   0.60 by Control Pump1
   01/01/1988: 00:02:24 Link Pump1 setting changed to   0.60 by Control Pump1
   01/01/1988: 00:03:24 Link Pump1 setting changed to   0.60 by Control Pump1
   01/01/1988: 00:04:24 Link Pump1 setting changed to   0.60 by Control Pump1
   01/01/1988: 00:05:24 Link Pump1 setting changed to   0.60 by Control Pump1
   01/01/1988: 00:06:24 Link Pump1 setting changed to   0.60 by Control Pump1
   01/01/1988: 00:07:24 Link Pump1 setting changed to   0.60 by Control Pump1
   01/01/1988: 00:08:24 Link Pump1 setting changed to   0.60 by Control Pump1
   01/01/1988: 00:09:24 Link Pump1 setting changed to   0.60 by Control Pump1
   01/01/1988: 00:10:24 Link Pump1 setting changed to   0.60 by Control Pump1
   01/01/1988: 00:11:24 Link Pump1 setting changed to   0.60 by Control Pump1
   01/01/1988: 00:12:24 Link Pump1 setting changed to   0.60 by Control Pump1
   01/01/1988: 00:13:24 Link Pump1 setting changed to   0.60 by Control Pump1
   01/01/1988: 00:14:24 Link Pump1 setting changed to   0.60 by Control Pump1
   01/01/1988: 00:15:24 Link Pump1 setting changed to   0.60 by Control Pump1
   01/01/1988: 00:34:40 Link Pump1 setting changed to   0.75 by Control Pump1a
   01/01/1988: 00:35:02 Link Pump1 setting changed to   1.00 by Control Pump1b
   01/01/1988: 00:35:25 Link Pump1 setting changed to   0.75 by Control Pump1a
   01/01/1988: 00:39:03 Link Pump1 setting changed to   1.00 by Control Pump1b
   01/01/1988: 01:00:04 Link OR1@82309b-15009b setting changed to   0.00 by Control Orf1
   01/01/1988: 02:00:15 Link OR1@82309b-15009b setting changed to   1.00 by Control Orf2
   01/01/1988: 03:06:35 Link Pump1 setting changed to   0.75 by Control Pump1a
   01/01/1988: 03:06:54 Link Pump1 setting changed to   1.00 by Control Pump1b
   01/01/1988: 03:07:12 Link Pump1 setting changed to   0.75 by Control Pump1a
   01/01/1988: 03:07:31 Link Pump1 setting changed to   1.00 by Control Pump1b
   01/01/1988: 03:07:50 Link Pump1 setting changed to   0.75 by Control Pump1a
   01/01/1988: 03:14:12 Link Pump1 setting changed to   0.60 by Control Pump1
   01/01/1988: 03:54:14 Link Pump1 setting changed to   0.60 by Control Pump1
   01/01/1988: 03:54:44 Link Pump1 setting changed to   0.60 by Control Pump1
   01/01/1988: 03:55:15 Link Pump1 setting changed to   0.60 by Control Pump1
   01/01/1988: 03:55:45 Link Pump1 setting changed to   0.60 by Control Pump1
   01/01/1988: 03:56:15 Link Pump1 setting changed to   0.60 by Control Pump1
   01/01/1988: 03:56:46 Link Pump1 setting changed to   0.60 by Control Pump1
   01/01/1988: 03:57:16 Link Pump1 setting changed to   0.60 by Control Pump1
   01/01/1988: 03:57:47 Link Pump1 setting changed to   0.60 by Control Pump1
   01/01/1988: 03:58:17 Link Pump1 setting changed to   0.60 by Control Pump1
   01/01/1988: 03:58:48 Link Pump1 setting changed to   0.60 by Control Pump1
   01/01/1988: 03:59:18 Link Pump1 setting changed to   0.60 by Control Pump1
   01/01/1988: 03:59:49 Link Pump1 setting changed to   0.60 by Control Pump1
   01/01/1988: 04:00:19 Link Pump1 setting changed to   0.60 by Control Pump1
   01/01/1988: 04:00:50 Link Pump1 setting changed to   0.60 by Control Pump1
   01/01/1988: 04:01:21 Link Pump1 setting changed to   0.60 by Control Pump1
   01/01/1988: 04:01:52 Link Pump1 setting changed to   0.60 by Control Pump1
   01/01/1988: 04:02:22 Link Pump1 setting changed to   0.60 by Control Pump1
   01/01/1988: 04:02:53 Link Pump1 setting changed to   0.60 by Control Pump1
   01/01/1988: 04:03:24 Link Pump1 setting changed to   0.60 by Control Pump1
   01/01/1988: 04:03:55 Link Pump1 setting changed to   0.60 by Control Pump1
   01/01/1988: 04:04:26 Link Pump1 setting changed to   0.60 by Control Pump1
   01/01/1988: 04:04:57 Link Pump1 setting changed to   0.60 by Control Pump1
   01/01/1988: 04:05:28 Link Pump1 setting changed to   0.60 by Control Pump1
   01/01/1988: 04:05:59 Link Pump1 setting changed to   0.60 by Control Pump1
   01/01/1988: 04:06:30 Link Pump1 setting changed to   0.60 by Control Pump1
   01/01/1988: 04:07:01 Link Pump1 setting changed to   0.60 by Control Pump1
   01/01/1988: 04:07:32 Link Pump1 setting changed to   0.60 by Control Pump1
   01/01/1988: 04:08:03 Link Pump1 setting changed to   0.60 by Control Pump1
   01/01/1988: 04:08:34 Link Pump1 setting changed to   0.60 by Control Pump1
   01/01/1988: 04:09:05 Link Pump1 setting changed to   0.60 by Control Pump1
   01/01/1988: 04:09:37 Link Pump1 setting changed to   0.60 by Control Pump1
   01/01/1988: 04:10:08 Link Pump1 setting changed to   0.60 by Control Pump1
   01/01/1988: 04:10:39 Link Pump1 setting changed to   0.60 by Control Pump1
   01/01/1988: 04:11:11 Link Pump1 setting changed to   0.60 by Control Pump1
   01/01/1988: 04:11:42 Link Pump1 setting changed to   0.60 by Control Pump1
   01/01/1988: 04:12:14 Link Pump1 setting changed to   0.60 by Control Pump1
   01/01/1988: 04:12:46 Link Pump1 setting changed to   0.60 by Control Pump1
   01/01/1988: 04:13:17 Link Pump1 setting changed to   0.60 by Control Pump1
   01/01/1988: 04:13:49 Link Pump1 setting changed to   0.60 by Control Pump1
   01/01/1988: 04:14:21 Link Pump1 setting changed to   0.60 by Control Pump1
   01/01/1988: 04:14:53 Link Pump1 setting changed to   0.60 by Control Pump1
   01/01/1988: 04:15:26 Link Pump1 setting changed to   0.60 by Control Pump1
   01/01/1988: 04:15:58 Link Pump1 setting changed to   0.60 by Control Pump1
   01/01/1988: 04:16:31 Link Pump1 setting changed to   0.60 by Control Pump1
   01/01/1988: 04:17:03 Link Pump1 setting changed to   0.60 by Control Pump1
   01/01/1988: 04:17:36 Link Pump1 setting changed to   0.60 by Control Pump1
   01/01/1988: 04:18:09 Link Pump1 setting changed to   0.60 by Control Pump1
   01/01/1988: 04:18:43 Link Pump1 setting changed to   0.60 by Control Pump1
   01/01/1988: 04:19:16 Link Pump1 setting changed to   0.60 by Control Pump1
   01/01/1988: 04:19:50 Link Pump1 setting changed to   0.60 by Control Pump1
   01/01/1988: 04:20:23 Link Pump1 setting changed to   0.60 by Control Pump1
   01/01/1988: 04:20:57 Link Pump1 setting changed to   0.60 by Control Pump1
   01/01/1988: 04:21:31 Link Pump1 setting changed to   0.60 by Control Pump1
   01/01/1988: 04:22:06 Link Pump1 setting changed to   0.60 by Control Pump1
   01/01/1988: 04:22:40 Link Pump1 setting changed to   0.60 by Control Pump1
   01/01/1988: 04:23:15 Link Pump1 setting changed to   0.60 by Control Pump1
   01/01/1988: 04:23:50 Link Pump1 setting changed to   0.60 by Control Pump1
   01/01/1988: 04:24:25 Link Pump1 setting changed to   0.60 by Control Pump1
   01/01/1988: 04:25:00 Link Pump1 setting changed to   0.60 by Control Pump1
   01/01/1988: 04:25:36 Link Pump1 setting changed to   0.60 by Control Pump1
   01/01/1988: 04:26:12 Link Pump1 setting changed to   0.60 by Control Pump1
   01/01/1988: 04:26:48 Link Pump1 setting changed to   0.60 by Control Pump1
   01/01/1988: 04:27:24 Link Pump1 setting changed to   0.60 by Control Pump1
   01/01/1988: 04:28:00 Link Pump1 setting changed to   0.60 by Control Pump1
   01/01/1988: 04:28:37 Link Pump1 setting changed to   0.60 by Control Pump1
   01/01/1988: 04:29:14 Link Pump1 setting changed to   0.60 by Control Pump1
   01/01/1988: 04:29:51 Link Pump1 setting changed to   0.60 by Control Pump1
   01/01/1988: 04:30:28 Link Pump1 setting changed to   0.60 by Control Pump1
   01/01/1988: 04:31:06 Link Pump1 setting changed to   0.60 by Control Pump1
   01/01/1988: 04:31:44 Link Pump1 setting changed to   0.60 by Control Pump1
   01/01/1988: 04:32:22 Link Pump1 setting changed to   0.60 by Control Pump1
   01/01/1988: 04:33:01 Link Pump1 setting changed to   0.60 by Control Pump1
   01/01/1988: 04:33:39 Link Pump1 setting changed to   0.60 by Control Pump1
   01/01/1988: 04:34:18 Link Pump1 setting changed to   0.60 by Control Pump1
   01/01/1988: 04:34:58 Link Pump1 setting changed to   0.60 by Control Pump1
   01/01/1988: 04:35:37 Link Pump1 setting changed to   0.60 by Control Pump1
   01/01/1988: 04:36:17 Link Pump1 setting changed to   0.60 by Control Pump1
   01/01/1988: 04:36:56 Link Pump1 setting changed to   0.60 by Control Pump1
   01/01/1988: 04:37:36 Link Pump1 setting changed to   0.60 by Control Pump1
   01/01/1988: 04:38:15 Link Pump1 setting changed to   0.60 by Control Pump1
   01/01/1988: 04:38:55 Link Pump1 setting changed to   0.60 by Control Pump1
   01/01/1988: 04:39:34 Link Pump1 setting changed to   0.60 by Control Pump1
   01/01/1988: 04:40:14 Link Pump1 setting changed to   0.60 by Control Pump1
   01/01/1988: 04:40:54 Link Pump1 setting changed to   0.60 by Control Pump1
   01/01/1988: 04:41:33 Link Pump1 setting changed to   0.60 by Control Pump1
   01/01/1988: 04:42:13 Link Pump1 setting changed to   0.60 by Control Pump1
   01/01/1988: 04:42:53 Link Pump1 setting changed to   0.60 by Control Pump1
   01/01/1988: 04:43:32 Link Pump1 setting changed to   0.60 by Control Pump1
   01/01/1988: 04:44:12 Link Pump1 setting changed to   0.60 by Control Pump1
   01/01/1988: 04:44:52 Link Pump1 setting changed to   0.60 by Control Pump1
   01/01/1988: 04:45:31 Link Pump1 setting changed to   0.60 by Control Pump1
   01/01/1988: 04:46:11 Link Pump1 setting changed to   0.60 by Control Pump1
   01/01/1988: 04:46:51 Link Pump1 setting changed to   0.60 by Control Pump1
   01/01/1988: 04:47:30 Link Pump1 setting changed to   0.60 by Control Pump1
   01/01/1988: 04:48:10 Link Pump1 setting changed to   0.60 by Control Pump1
   01/01/1988: 04:48:34 Link Pump1 setting changed to   0.60 by Control Pump1
   01/01/1988: 04:49:10 Link Pump1 setting changed to   0.60 by Control Pump1
   01/01/1988: 04:49:50 Link Pump1 setting changed to   0.60 by Control Pump1
   01/01/1988: 04:50:30 Link Pump1 setting changed to   0.60 by Control Pump1
   01/01/1988: 04:51:09 Link Pump1 setting changed to   0.60 by Control Pump1
   01/01/1988: 04:51:49 Link Pump1 setting changed to   0.60 by Control Pump1
   01/01/1988: 04:52:29 Link Pump1 setting changed to   0.60 by Control Pump1
   01/01/1988: 04:53:09 Link Pump1 setting changed to   0.60 by Control Pump1
   01/01/1988: 04:53:48 Link Pump1 setting changed to   0.60 by Control Pump1
   01/01/1988: 04:54:28 Link Pump1 setting changed to   0.60 by Control Pump1
   01/01/1988: 04:55:08 Link Pump1 setting changed to   0.60 by Control Pump1
   01/01/1988: 04:55:48 Link Pump1 setting changed to   0.60 by Control Pump1
   01/01/1988: 04:56:27 Link Pump1 setting changed to   0.60 by Control Pump1
   01/01/1988: 04:57:07 Link Pump1 setting changed to   0.60 by Control Pump1
   01/01/1988: 04:57:47 Link Pump1 setting changed to   0.60 by Control Pump1
   01/01/1988: 04:58:27 Link Pump1 setting changed to   0.60 by Control Pump1
   01/01/1988: 04:59:06 Link Pump1 setting changed to   0.60 by Control Pump1
   01/01/1988: 04:59:46 Link Pump1 setting changed to   0.60 by Control Pump1
   01/01/1988: 05:00:26 Link Pump1 setting changed to   0.60 by Control Pump1
   01/01/1988: 05:01:06 Link Pump1 setting changed to   0.60 by Control Pump1
   01/01/1988: 05:01:45 Link Pump1 setting changed to   0.60 by Control Pump1
   01/01/1988: 05:02:25 Link Pump1 setting changed to   0.60 by Control Pump1
   01/01/1988: 05:03:05 Link Pump1 setting changed to   0.60 by Control Pump1
   01/01/1988: 05:03:45 Link Pump1 setting changed to   0.60 by Control Pump1
   01/01/1988: 05:04:25 Link Pump1 setting changed to   0.60 by Control Pump1
   01/01/1988: 05:05:04 Link Pump1 setting changed to   0.60 by Control Pump1
   01/01/1988: 05:05:44 Link Pump1 setting changed to   0.60 by Control Pump1
   01/01/1988: 05:06:24 Link Pump1 setting changed to   0.60 by Control Pump1
   01/01/1988: 05:07:04 Link Pump1 setting changed to   0.60 by Control Pump1
   01/01/1988: 05:07:43 Link Pump1 setting changed to   0.60 by Control Pump1
   01/01/1988: 05:08:23 Link Pump1 setting changed to   0.60 by Control Pump1
   01/01/1988: 05:09:03 Link Pump1 setting changed to   0.60 by Control Pump1
   01/01/1988: 05:09:43 Link Pump1 setting changed to   0.60 by Control Pump1
   01/01/1988: 05:10:22 Link Pump1 setting changed to   0.60 by Control Pump1
   01/01/1988: 05:11:02 Link Pump1 setting changed to   0.60 by Control Pump1
   01/01/1988: 05:11:42 Link Pump1 setting changed to   0.60 by Control Pump1
   01/01/1988: 05:12:22 Link Pump1 setting changed to   0.60 by Control Pump1
   01/01/1988: 05:13:01 Link Pump1 setting changed to   0.60 by Control Pump1
   01/01/1988: 05:13:41 Link Pump1 setting changed to   0.60 by Control Pump1
   01/01/1988: 05:14:21 Link Pump1 setting changed to   0.60 by Control Pump1
   01/01/1988: 05:15:01 Link Pump1 setting changed to   0.60 by Control Pump1
   01/01/1988: 05:15:40 Link Pump1 setting changed to   0.60 by Control Pump1
   01/01/1988: 05:16:20 Link Pump1 setting changed to   0.60 by Control Pump1
   01/01/1988: 05:17:00 Link Pump1 setting changed to   0.60 by Control Pump1
   01/01/1988: 05:17:40 Link Pump1 setting changed to   0.60 by Control Pump1
   01/01/1988: 05:18:19 Link Pump1 setting changed to   0.60 by Control Pump1
   01/01/1988: 05:18:59 Link Pump1 setting changed to   0.60 by Control Pump1
   01/01/1988: 05:19:39 Link Pump1 setting changed to   0.60 by Control Pump1
   01/01/1988: 05:20:19 Link Pump1 setting changed to   0.60 by Control Pump1
   01/01/1988: 05:20:58 Link Pump1 setting changed to   0.60 by Control Pump1
   01/01/1988: 05:21:38 Link Pump1 setting changed to   0.60 by Control Pump1
   01/01/1988: 05:22:18 Link Pump1 setting changed to   0.60 by Control Pump1
   01/01/1988: 05:22:58 Link Pump1 setting changed to   0.60 by Control Pump1
   01/01/1988: 05:23:37 Link Pump1 setting changed to   0.60 by Control Pump1
   01/01/1988: 05:24:17 Link Pump1 setting changed to   0.60 by Control Pump1
   01/01/1988: 05:24:57 Link Pump1 setting changed to   0.60 by Control Pump1
   01/01/1988: 05:25:36 Link Pump1 setting changed to   0.60 by Control Pump1
   01/01/1988: 05:26:16 Link Pump1 setting changed to   0.60 by Control Pump1
   01/01/1988: 05:26:56 Link Pump1 setting changed to   0.60 by Control Pump1
   01/01/1988: 05:27:36 Link Pump1 setting changed to   0.60 by Control Pump1
   01/01/1988: 05:28:15 Link Pump1 setting changed to   0.60 by Control Pump1
   01/01/1988: 05:28:55 Link Pump1 setting changed to   0.60 by Control Pump1
   01/01/1988: 05:29:35 Link Pump1 setting changed to   0.60 by Control Pump1
   01/01/1988: 05:30:15 Link Pump1 setting changed to   0.60 by Control Pump1
   01/01/1988: 05:30:54 Link Pump1 setting changed to   0.60 by Control Pump1
   01/01/1988: 05:31:34 Link Pump1 setting changed to   0.60 by Control Pump1
   01/01/1988: 05:32:14 Link Pump1 setting changed to   0.60 by Control Pump1
   01/01/1988: 05:32:53 Link Pump1 setting changed to   0.60 by Control Pump1
   01/01/1988: 05:33:33 Link Pump1 setting changed to   0.60 by Control Pump1
   01/01/1988: 05:34:13 Link Pump1 setting changed to   0.60 by Control Pump1
   01/01/1988: 05:34:53 Link Pump1 setting changed to   0.60 by Control Pump1
   01/01/1988: 05:35:32 Link Pump1 setting changed to   0.60 by Control Pump1
   01/01/1988: 05:36:12 Link Pump1 setting changed to   0.60 by Control Pump1
   01/01/1988: 05:36:52 Link Pump1 setting changed to   0.60 by Control Pump1
   01/01/1988: 05:37:31 Link Pump1 setting changed to   0.60 by Control Pump1
   01/01/1988: 05:38:11 Link Pump1 setting changed to   0.60 by Control Pump1
   01/01/1988: 05:38:51 Link Pump1 setting changed to   0.60 by Control Pump1
   01/01/1988: 05:39:31 Link Pump1 setting changed to   0.60 by Control Pump1
   01/01/1988: 05:40:10 Link Pump1 setting changed to   0.60 by Control Pump1
   01/01/1988: 05:40:50 Link Pump1 setting changed to   0.60 by Control Pump1
   01/01/1988: 05:41:30 Link Pump1 setting changed to   0.60 by Control Pump1
   01/01/1988: 05:42:09 Link Pump1 setting changed to   0.60 by Control Pump1
   01/01/1988: 05:42:49 Link Pump1 setting changed to   0.60 by Control Pump1
   01/01/1988: 05:43:29 Link Pump1 setting changed to   0.60 by Control Pump1
   01/01/1988: 05:44:08 Link Pump1 setting changed to   0.60 by Control Pump1
   01/01/1988: 05:44:48 Link Pump1 setting changed to   0.60 by Control Pump1
   01/01/1988: 05:45:28 Link Pump1 setting changed to   0.60 by Control Pump1
   01/01/1988: 05:46:08 Link Pump1 setting changed to   0.60 by Control Pump1
   01/01/1988: 05:46:47 Link Pump1 setting changed to   0.60 by Control Pump1
   01/01/1988: 05:47:27 Link Pump1 setting changed to   0.60 by Control Pump1
   01/01/1988: 05:48:07 Link Pump1 setting changed to   0.60 by Control Pump1
   01/01/1988: 05:48:46 Link Pump1 setting changed to   0.60 by Control Pump1
   01/01/1988: 05:49:26 Link Pump1 setting changed to   0.60 by Control Pump1
   01/01/1988: 05:50:06 Link Pump1 setting changed to   0.60 by Control Pump1
   01/01/1988: 05:50:45 Link Pump1 setting changed to   0.60 by Control Pump1
   01/01/1988: 05:51:25 Link Pump1 setting changed to   0.60 by Control Pump1
   01/01/1988: 05:52:05 Link Pump1 setting changed to   0.60 by Control Pump1
   01/01/1988: 05:52:44 Link Pump1 setting changed to   0.60 by Control Pump1
   01/01/1988: 05:53:24 Link Pump1 setting changed to   0.60 by Control Pump1
   01/01/1988: 05:54:04 Link Pump1 setting changed to   0.60 by Control Pump1
   01/01/1988: 05:54:44 Link Pump1 setting changed to   0.60 by Control Pump1
   01/01/1988: 05:55:23 Link Pump1 setting changed to   0.60 by Control Pump1
   01/01/1988: 05:56:03 Link Pump1 setting changed to   0.60 by Control Pump1
   01/01/1988: 05:56:43 Link Pump1 setting changed to   0.60 by Control Pump1
   01/01/1988: 05:57:22 Link Pump1 setting changed to   0.60 by Control Pump1
   01/01/1988: 05:58:02 Link Pump1 setting changed to   0.60 by Control Pump1
   01/01/1988: 05:58:42 Link Pump1 setting changed to   0.60 by Control Pump1
   01/01/1988: 05:59:21 Link Pump1 setting changed to   0.60 by Control Pump1

  
  **************************        Volume        Volume
  Flow Routing Continuity        acre-feet      10^6 gal
  **************************     ---------     ---------
  Dry Weather Inflow .......        19.834         6.463
  Wet Weather Inflow .......         0.000         0.000
  Groundwater Inflow .......         0.000         0.000
  RDII Inflow ..............         0.000         0.000
  External Inflow ..........       200.552        65.353
  External Outflow .........       166.434        54.235
  Flooding Loss ............        40.695        13.261
  Evaporation Loss .........         0.109         0.036
  Exfiltration Loss ........         0.000         0.000
  Initial Stored Volume ....         1.569         0.511
  Final Stored Volume ......        16.748         5.457
  Continuity Error (%) .....        -0.915
  
  
  *************************
  Highest Continuity Errors
  *************************
  Node 80608 (50.59%)
  Node 10309 (20.87%)
  Node 81309e (13.74%)
  Node 16009 (8.26%)
  Node 80608a (2.85%)
  
  
  ***************************
  Time-Step Critical Elements
  ***************************
  Link 1630c (29.93%)
  Link 1630b (16.10%)
  Link 1600d (15.53%)
  Link 1600a (14.51%)
  Link 1600 (10.54%)
  
  
  ********************************
  Highest Flow Instability Indexes
  ********************************
  Link OR1@82309d-82308d (128)
  Link 8060a (38)
  Link 8060b (27)
  Link 8040b (26)
  Link 8040e (25)
  
  
  *************************
  Routing Time Step Summary
  *************************
  Minimum Time Step           :     2.92 sec
  Average Time Step           :    24.49 sec
  Maximum Time Step           :    60.00 sec
  Percent in Steady State     :     0.00
  Average Iterations per Step :     5.34
  Percent Not Converging      :    30.95
  
  
  ******************
  Node Depth Summary
  ******************
  
  ---------------------------------------------------------------------------------
                                 Average  Maximum  Maximum  Time of Max    Reported
                                   Depth    Depth      HGL   Occurrence   Max Depth
  Node                 Type         Feet     Feet     Feet  days hr:min        Feet
  ---------------------------------------------------------------------------------
  10309                JUNCTION     5.72     8.09   109.69     0  03:20        8.09
  10309a               JUNCTION     2.14     2.70   104.30     0  01:52        2.70
  10309b               JUNCTION     2.12     2.86   104.46     0  02:46        2.86
  10309c               JUNCTION     2.17     2.86   104.46     0  03:00        2.86
  10309d               JUNCTION     2.14     2.75   104.35     0  03:06        2.75
  10309e               JUNCTION     1.82     2.41   104.01     0  03:00        2.41
  15009                JUNCTION     1.76     2.45   113.95     0  01:36        2.45
  15009a               JUNCTION     1.75     2.45   113.95     0  01:36        2.45
  15009b               JUNCTION     2.04     2.99   114.49     0  02:32        2.99
  15009c               JUNCTION     0.91     1.27   112.77     0  03:00        1.27
  15009d               JUNCTION     1.76     2.45   113.95     0  01:36        2.45
  15009e               JUNCTION     0.80     1.09   122.09     0  03:06        1.09
  16009                JUNCTION     5.41     7.69   109.69     0  03:20        7.69
  16009a               JUNCTION     2.42     2.94   104.94     0  01:43        2.94
  16009b               JUNCTION     2.29     3.06   105.06     0  02:39        3.06
  16009c               JUNCTION     2.31     3.05   105.05     0  03:00        3.05
  16009d               JUNCTION     2.32     2.94   104.94     0  03:03        2.94
  16009e               JUNCTION     1.96     2.57   104.57     0  03:00        2.57
  16109                JUNCTION     4.77     6.91   109.71     0  03:20        6.90
  16109a               JUNCTION     2.44     2.96   105.76     0  01:51        2.96
  16109b               JUNCTION     2.06     2.97   105.77     0  01:19        2.97
  16109c               JUNCTION     1.74     2.40   105.20     0  03:00        2.40
  16109d               JUNCTION     2.28     2.96   105.76     0  03:02        2.96
  16109e               JUNCTION     2.08     2.87   105.67     0  03:00        2.87
  80408                JUNCTION    13.29    13.40   133.40     0  00:07       13.40
  80408a               JUNCTION     8.78    13.40   138.00     0  00:27       13.40
  80408b               JUNCTION     5.97    12.94   137.54     0  01:00       12.77
  80408c               JUNCTION     1.50     2.31   126.91     0  00:19        2.31
  80408d               JUNCTION     5.88    12.76   137.36     0  02:13       12.76
  80408e               JUNCTION     7.16    13.40   138.00     0  00:44       12.90
  80608                JUNCTION     0.09     0.15   118.45     0  06:00        0.15
  80608a               JUNCTION    11.08    16.70   135.00     0  00:27       16.70
  80608b               JUNCTION     8.41    16.70   135.00     0  01:00       16.70
  80608c               JUNCTION     2.19     3.14   121.44     0  03:00        3.14
  80608d               JUNCTION     8.85    16.70   135.00     0  02:12       16.70
  80608e               JUNCTION     9.63    16.70   135.00     0  00:44       16.70
  81009                JUNCTION     1.82     2.85   131.05     0  00:32        2.85
  81009a               JUNCTION     1.82     2.85   131.05     0  00:32        2.85
  81009b               JUNCTION     1.82     2.85   131.05     0  00:32        2.85
  81009c               JUNCTION     1.82     2.85   131.05     0  00:32        2.85
  81009d               JUNCTION     1.82     2.85   131.05     0  00:32        2.85
  81009e               JUNCTION     4.13     8.80   137.00     0  00:56        6.39
  81309                JUNCTION     2.14     3.09   120.59     0  01:01        3.09
  81309a               JUNCTION     2.14     3.10   120.60     0  01:01        3.10
  81309b               JUNCTION     2.06     2.99   120.49     0  02:00        2.99
  81309c               JUNCTION     2.40     3.40   120.90     0  03:00        3.40
  81309d               JUNCTION     2.14     3.10   120.60     0  01:01        3.10
  81309e               JUNCTION    11.62    12.50   130.00     0  00:40       12.50
  82308d               JUNCTION    12.38    21.47   133.77     0  02:45       21.40
  82309                JUNCTION     2.91     4.64   116.94     0  01:06        4.64
  82309a               JUNCTION    14.62    24.65   136.95     0  00:26       23.19
  82309b               JUNCTION    11.14    25.22   137.52     0  01:00       21.45
  82309c               JUNCTION     2.70     3.75   116.05     0  01:21        3.75
  WetWell              JUNCTION    12.22    20.50   132.80     0  00:44       20.34
  10208                OUTFALL      1.32     1.94    91.84     0  03:20        1.94
  10208b               OUTFALL      1.92     2.63    92.53     0  02:46        2.63
  10208c               OUTFALL      1.97     2.63    92.53     0  03:00        2.63
  10208d               OUTFALL      1.93     2.52    92.42     0  03:05        2.52
  10208e               OUTFALL      1.62     2.18    92.08     0  03:00        2.18
  10208a               OUTFALL      4.50     4.50    94.40     0  00:00        4.50
  82309d               STORAGE     12.38    21.31   133.61     0  03:00       21.30
  
  
  *******************
  Node Inflow Summary
  *******************
  
  -------------------------------------------------------------------------------------------------
                                  Maximum  Maximum                  Lateral       Total        Flow
                                  Lateral    Total  Time of Max      Inflow      Inflow     Balance
                                   Inflow   Inflow   Occurrence      Volume      Volume       Error
  Node                 Type           CFS      CFS  days hr:min    10^6 gal    10^6 gal     Percent
  -------------------------------------------------------------------------------------------------
  10309                JUNCTION      0.00    86.01     0  02:28           0        6.31      26.367
  10309a               JUNCTION      0.00   122.40     0  01:41           0        11.1       2.263
  10309b               JUNCTION      0.00   135.49     0  02:38           0        10.4       0.270
  10309c               JUNCTION      0.00   135.00     0  03:00           0        10.8       0.232
  10309d               JUNCTION      0.00   121.90     0  03:03           0        10.5       0.390
  10309e               JUNCTION      0.00    84.60     0  03:00           0        6.76       0.346
  15009                JUNCTION      0.00    50.96     0  01:14           0        4.02       0.172
  15009a               JUNCTION      0.00    51.05     0  01:14           0        4.02       0.484
  15009b               JUNCTION      0.00    73.21     0  02:13           0        5.14       0.169
  15009c               JUNCTION      0.00   102.78     0  03:00           0        8.21      -0.018
  15009d               JUNCTION      0.00    51.02     0  01:14           0        4.02       0.316
  15009e               JUNCTION      0.00    15.01     0  00:39           0        1.18       0.413
  16009                JUNCTION      0.00    90.89     0  02:27           0        6.88       9.009
  16009a               JUNCTION      0.00   122.43     0  01:38           0        11.2       1.068
  16009b               JUNCTION      0.00   135.54     0  02:34           0        10.5       0.378
  16009c               JUNCTION      0.00   135.00     0  03:00           0        10.8       0.021
  16009d               JUNCTION      0.00   121.92     0  03:02           0        10.6       0.507
  16009e               JUNCTION      0.00    84.60     0  03:00           0        6.79       0.393
  16109                JUNCTION      0.00    44.24     0  01:33           0        3.22       0.000
  16109a               JUNCTION      0.00    71.99     0  01:48           0        7.36       0.000
  16109b               JUNCTION      0.00    72.02     0  01:18           0        5.36       0.000
  16109c               JUNCTION      0.00    32.21     0  03:00           0        2.66       0.000
  16109d               JUNCTION      0.00    71.94     0  03:00           0        6.59       0.000
  16109e               JUNCTION      0.00    69.60     0  01:39           0        5.63       0.000
  80408                JUNCTION     66.00    66.00     0  00:16        7.02        7.01       1.325
  80408a               JUNCTION     65.00    65.00     0  00:16        6.86        6.85       0.290
  80408b               JUNCTION     45.00    45.00     0  00:16        3.63        3.62      -0.170
  80408c               JUNCTION     45.00    45.00     0  00:16        3.63        3.62      -0.149
  80408d               JUNCTION     45.00    45.00     0  00:16        3.63        3.62      -0.172
  80408e               JUNCTION     45.00    45.00     0  00:16        3.63        3.62      -0.165
  80608                JUNCTION      0.00     0.07     0  00:01           0     0.00952     102.374
  80608a               JUNCTION      0.00    65.68     0  00:19           0        5.83       2.937
  80608b               JUNCTION      0.00    46.19     0  00:22           0        3.63       1.809
  80608c               JUNCTION      0.00    46.19     0  00:22           0        3.63       0.340
  80608d               JUNCTION      0.00    46.15     0  00:22           0        3.63       1.882
  80608e               JUNCTION      0.00    46.19     0  00:22           0        3.63       1.652
  81009                JUNCTION     50.00    50.00     0  00:16        4.03        4.02      -0.385
  81009a               JUNCTION     50.00    50.00     0  00:16        4.03        4.02      -0.385
  81009b               JUNCTION     50.00    50.00     0  00:16        4.03        4.02      -0.388
  81009c               JUNCTION     50.00    50.00     0  00:16        4.03        4.02      -0.417
  81009d               JUNCTION     50.00    50.00     0  00:16        4.03        4.02      -0.385
  81009e               JUNCTION     50.00    50.00     0  00:16        4.03        4.02       2.111
  81309                JUNCTION      0.00    53.82     0  00:41           0        4.04       0.482
  81309a               JUNCTION      0.00    53.83     0  00:41           0        4.04       0.480
  81309b               JUNCTION      0.00    53.48     0  00:42           0        4.04       0.601
  81309c               JUNCTION      0.00    53.93     0  00:40           0        4.04       1.005
  81309d               JUNCTION      0.00    53.84     0  00:41           0        4.04       0.483
  81309e               JUNCTION      0.00    53.66     0  00:32           0        3.94      15.925
  82308d               JUNCTION      0.00    17.33     0  04:47           0      0.0254       0.000
  82309                JUNCTION     40.00    40.05     0  03:00        3.23        3.22       0.156
  82309a               JUNCTION     40.00    99.72     0  00:25        3.23        7.53       2.356
  82309b               JUNCTION     40.00    86.48     0  02:00        3.23        6.43      -0.968
  82309c               JUNCTION     40.00    85.00     0  03:00        3.23        6.83      -0.072
  WetWell              JUNCTION     40.00    84.62     0  01:45        3.23        6.75      -0.818
  10208                OUTFALL       0.00    62.82     0  03:20           0        4.98       0.000
  10208b               OUTFALL       0.00   135.35     0  02:46           0        10.4       0.000
  10208c               OUTFALL       0.00   134.95     0  03:00           0        10.8       0.000
  10208d               OUTFALL       0.00   121.82     0  03:05           0        10.5       0.000
  10208e               OUTFALL       0.00    84.56     0  03:00           0        6.73       0.000
  10208a               OUTFALL       0.00   122.26     0  01:52           0        10.9       0.000
  82309d               STORAGE      40.00    85.41     0  00:50        3.23        6.59      -0.419
  
  
  **********************
  Node Surcharge Summary
  **********************
  
  Surcharging occurs when water rises above the top of the highest conduit.
  ---------------------------------------------------------------------
                                               Max. Height   Min. Depth
                                   Hours       Above Crown    Below Rim
  Node                 Type      Surcharged           Feet         Feet
  ---------------------------------------------------------------------
  16109                JUNCTION        1.80          0.906       15.294
  80408                JUNCTION        5.89          9.400        0.000
  80408a               JUNCTION        2.70          9.400        0.000
  80408b               JUNCTION        2.23          8.941        0.459
  80408d               JUNCTION        2.16          8.757        0.643
  80408e               JUNCTION        2.32          9.400        0.000
  80608a               JUNCTION        2.81         12.700        0.000
  80608b               JUNCTION        2.44         12.700        0.000
  80608d               JUNCTION        2.89         12.700        0.000
  80608e               JUNCTION        2.51         12.700        0.000
  81009e               JUNCTION        2.13          4.300        0.000
  81309e               JUNCTION        5.33          8.000        0.000
  82308d               JUNCTION        4.50         19.466       21.234
  82309a               JUNCTION        2.92         18.448       18.052
  82309b               JUNCTION        2.59         19.021       17.479
  WetWell              JUNCTION        2.67         14.297        0.503
  
  
  *********************
  Node Flooding Summary
  *********************
  
  Flooding refers to all water that overflows a node, whether it ponds or not.
  --------------------------------------------------------------------------
                                                             Total   Maximum
                                 Maximum   Time of Max       Flood    Ponded
                        Hours       Rate    Occurrence      Volume     Depth
  Node                 Flooded       CFS   days hr:min    10^6 gal      Feet
  --------------------------------------------------------------------------
  80408                   5.89     65.94      0  00:17       6.925     0.000
  80408a                  2.62     42.15      0  00:27       1.000     0.000
  80408e                  0.01      1.73      0  00:44       0.000     0.000
  80608a                  2.65     33.61      0  00:27       1.357     0.000
  80608b                  1.00     14.05      0  01:01       0.353     0.000
  80608d                  0.86     12.66      0  03:00       0.205     0.000
  80608e                  2.27      4.89      0  00:45       0.035     0.000
  81009e                  0.01      8.05      0  00:56       0.002     0.000
  81309e                  2.89     49.99      0  00:57       3.396     0.000
  
  
  **********************
  Storage Volume Summary
  **********************
  
  --------------------------------------------------------------------------------------------------
                         Average     Avg  Evap Exfil       Maximum     Max    Time of Max    Maximum
                          Volume    Pcnt  Pcnt  Pcnt        Volume    Pcnt     Occurrence    Outflow
  Storage Unit          1000 ft3    Full  Loss  Loss      1000 ft3    Full    days hr:min        CFS
  --------------------------------------------------------------------------------------------------
  82309d                   9.900      29     0     0        17.044      50       0  03:00      71.94
  
  
  ***********************
  Outfall Loading Summary
  ***********************
  
  -----------------------------------------------------------
                         Flow       Avg       Max       Total
                         Freq      Flow      Flow      Volume
  Outfall Node           Pcnt       CFS       CFS    10^6 gal
  -----------------------------------------------------------
  10208                 94.67     33.62     62.82       4.983
  10208b                96.26     85.88    135.35      10.407
  10208c                98.19     89.38    134.95      10.781
  10208d                95.80     82.27    121.82      10.465
  10208e                96.15     55.57     84.56       6.732
  10208a                95.35     86.11    122.26      10.864
  -----------------------------------------------------------
  System                96.07    432.83    657.27      54.231
  
  
  ********************
  Link Flow Summary
  ********************
  
  -----------------------------------------------------------------------------
                                 Maximum  Time of Max   Maximum    Max/    Max/
                                  |Flow|   Occurrence   |Veloc|    Full    Full
  Link                 Type          CFS  days hr:min    ft/sec    Flow   Depth
  -----------------------------------------------------------------------------
  1030e                CONDUIT     84.56     0  03:00      5.35    0.03    0.26
  1030                 CONDUIT     62.82     0  03:20      0.83    0.26    0.56
  1030a                CONDUIT    122.26     0  01:52      3.14    0.04    0.40
  1030b                CONDUIT    135.35     0  02:46      5.98    0.04    0.31
  1030c                CONDUIT    134.95     0  03:00      5.98    0.04    0.30
  1030d                CONDUIT    121.82     0  03:05      5.83    0.04    0.29
  1570                 CONDUIT     50.45     0  01:36      4.27    0.41    0.72
  1570a                CONDUIT     50.48     0  01:36      4.36    0.41    0.49
  1570b                CONDUIT     70.90     0  02:32      5.30    0.57    0.55
  1570c                CONDUIT    102.78     0  03:00     11.85    0.12    0.39
  1570d                CONDUIT     50.47     0  01:36      4.48    0.41    0.49
  1570e                CONDUIT     15.01     0  03:06      2.42    0.09    0.33
  1600                 CONDUIT     40.87     0  02:27      4.20    0.28    1.00
  1600a                CONDUIT     71.99     0  02:02      6.10    0.49    0.49
  1600b                CONDUIT     72.08     0  01:24      5.21    0.49    0.49
  1600c                CONDUIT     32.32     0  03:06      2.68    0.22    0.45
  1600d                CONDUIT     71.92     0  03:02      5.21    0.49    0.49
  1600e                CONDUIT     69.59     0  03:00      5.63    0.47    0.45
  1602                 CONDUIT     44.24     0  01:33      2.74    1.02    0.89
  1602a                CONDUIT     71.99     0  01:48      4.33    1.66    0.80
  1602b                CONDUIT     72.02     0  01:18      4.35    1.66    0.80
  1602c                CONDUIT     32.21     0  03:00      2.54    0.74    0.62
  1602d                CONDUIT     71.94     0  03:00      4.29    1.66    0.80
  1602e                CONDUIT     69.60     0  01:39      4.22    1.60    0.79
  1630                 CONDUIT     86.01     0  02:28      4.67    0.04    0.88
  1630a                CONDUIT    122.40     0  01:41      8.45    0.05    0.31
  1630b                CONDUIT    135.49     0  02:38      5.83    0.06    0.33
  1630c                CONDUIT    135.00     0  03:00      5.65    0.06    0.33
  1630d                CONDUIT    121.90     0  03:03      5.53    0.05    0.32
  1630e                CONDUIT     84.60     0  03:00      5.25    0.04    0.28
  8040                 CONDUIT      0.07     0  00:01      0.17    1.72    0.52
  8040a                CONDUIT     65.68     0  00:19      7.81    0.89    1.00
  8040b                CONDUIT     46.19     0  00:22      7.30    0.63    1.00
  8040c                CONDUIT     46.19     0  00:22      7.32    0.63    0.68
  8040d                CONDUIT     46.15     0  00:22      7.30    0.63    1.00
  8040e                CONDUIT     46.19     0  00:22      7.32    0.63    1.00
  8060                 CONDUIT      0.05     0  03:20      0.68    0.00    0.31
  8060a                CONDUIT     59.72     0  00:25      5.45    1.12    1.00
  8060b                CONDUIT     46.86     0  03:11      4.96    0.88    1.00
  8060c                CONDUIT     45.00     0  03:00      5.27    0.84    0.64
  8060d                CONDUIT     45.41     0  00:50      4.92    0.85    1.00
  8060e                CONDUIT     45.57     0  03:07      4.95    0.86    1.00
  8100                 CONDUIT     53.82     0  00:41      6.57    0.69    0.64
  8100a                CONDUIT     53.83     0  00:41      6.57    0.69    0.64
  8100b                CONDUIT     53.48     0  00:42      6.64    0.69    0.62
  8100c                CONDUIT     53.93     0  00:40      6.63    0.69    0.67
  8100d                CONDUIT     53.84     0  00:41      6.57    0.69    0.64
  8100e                CONDUIT     53.65     0  00:32      6.58    0.69    1.00
  8130                 CONDUIT     50.96     0  01:14      5.59    0.72    0.61
  8130a                CONDUIT     51.05     0  01:14      5.69    0.72    0.61
  8130b                CONDUIT     52.82     0  02:14      4.98    0.75    0.65
  8130c                CONDUIT     50.00     0  03:00      6.07    0.71    0.52
  8130d                CONDUIT     51.02     0  01:14      5.59    0.72    0.61
  8130e                CONDUIT      0.01     0  00:04      0.46    0.00    0.62
  Pump1                PUMP        15.00     0  00:39              1.00
  OR1@82309d-82308d    ORIFICE     17.33     0  04:47                      1.00
  OR1@82309b-15009b    ORIFICE     21.79     0  00:49                      1.00
  WEIR1@82309c-15009c  WEIR        52.81     0  01:21                      0.51
  
  
  ***************************
  Flow Classification Summary
  ***************************
  
  -------------------------------------------------------------------------------------
                      Adjusted    ---------- Fraction of Time in Flow Class ---------- 
                       /Actual         Up    Down  Sub   Sup   Up    Down  Norm  Inlet 
  Conduit               Length    Dry  Dry   Dry   Crit  Crit  Crit  Crit  Ltd   Ctrl  
  -------------------------------------------------------------------------------------
  1030e                   1.00   0.01  0.00  0.00  0.99  0.00  0.00  0.00  0.00  0.00
  1030                    1.00   0.02  0.00  0.00  0.98  0.00  0.00  0.00  0.00  0.00
  1030a                   1.00   0.00  0.03  0.00  0.97  0.00  0.00  0.00  0.93  0.00
  1030b                   1.00   0.01  0.00  0.00  0.99  0.00  0.00  0.00  0.00  0.00
  1030c                   1.00   0.00  0.00  0.00  1.00  0.00  0.00  0.00  0.00  0.00
  1030d                   1.00   0.02  0.00  0.00  0.98  0.00  0.00  0.00  0.00  0.00
  1570                    1.00   0.00  0.00  0.00  1.00  0.00  0.00  0.00  0.91  0.00
  1570a                   1.00   0.00  0.00  0.00  1.00  0.00  0.00  0.00  0.95  0.00
  1570b                   1.00   0.00  0.00  0.00  1.00  0.00  0.00  0.00  0.89  0.00
  1570c                   5.02   0.00  0.00  0.00  0.28  0.72  0.00  0.00  0.99  0.00
  1570d                   1.00   0.00  0.00  0.00  1.00  0.00  0.00  0.00  0.91  0.00
  1570e                   1.00   0.00  0.00  0.00  0.98  0.02  0.00  0.00  0.93  0.00
  1600                    1.00   0.00  0.00  0.00  0.98  0.02  0.00  0.00  0.02  0.00
  1600a                   1.00   0.00  0.00  0.00  0.99  0.01  0.00  0.00  0.33  0.00
  1600b                   1.00   0.00  0.00  0.00  1.00  0.00  0.00  0.00  0.30  0.00
  1600c                   1.00   0.00  0.00  0.00  1.00  0.00  0.00  0.00  0.40  0.00
  1600d                   1.00   0.00  0.00  0.00  0.98  0.02  0.00  0.00  0.29  0.00
  1600e                   1.00   0.00  0.00  0.00  0.98  0.01  0.00  0.00  0.42  0.00
  1602                    1.00   0.00  0.00  0.00  1.00  0.00  0.00  0.00  0.60  0.00
  1602a                   1.00   0.00  0.00  0.00  1.00  0.00  0.00  0.00  0.00  0.00
  1602b                   1.00   0.00  0.00  0.00  1.00  0.00  0.00  0.00  0.34  0.00
  1602c                   1.00   0.00  0.00  0.00  1.00  0.00  0.00  0.00  0.02  0.00
  1602d                   1.00   0.00  0.00  0.00  1.00  0.00  0.00  0.00  0.00  0.00
  1602e                   1.00   0.00  0.00  0.00  1.00  0.00  0.00  0.00  0.20  0.00
  1630                    1.00   0.00  0.00  0.00  0.97  0.03  0.00  0.00  0.00  0.00
  1630a                   1.00   0.00  0.00  0.00  0.93  0.07  0.00  0.00  0.00  0.00
  1630b                   1.00   0.00  0.00  0.00  0.95  0.05  0.00  0.00  0.24  0.00
  1630c                   1.00   0.00  0.00  0.00  0.98  0.02  0.00  0.00  0.31  0.00
  1630d                   1.00   0.00  0.00  0.00  0.95  0.05  0.00  0.00  0.14  0.00
  1630e                   1.00   0.00  0.00  0.00  0.95  0.05  0.00  0.00  0.28  0.00
  8040                    1.00   0.00  0.00  0.00  1.00  0.00  0.00  0.00  0.00  0.00
  8040a                   1.00   0.00  0.00  0.00  0.98  0.02  0.00  0.00  0.48  0.00
  8040b                   1.00   0.00  0.00  0.00  0.98  0.02  0.00  0.00  0.53  0.00
  8040c                   1.00   0.00  0.00  0.00  0.98  0.02  0.00  0.00  0.94  0.00
  8040d                   1.00   0.00  0.00  0.00  0.98  0.02  0.00  0.00  0.49  0.00
  8040e                   1.00   0.00  0.00  0.00  0.98  0.02  0.00  0.00  0.52  0.00
  8060                    1.00   0.00  0.00  0.00  0.67  0.00  0.00  0.33  0.51  0.00
  8060a                   1.00   0.00  0.00  0.00  0.76  0.00  0.00  0.24  0.08  0.00
  8060b                   1.00   0.00  0.00  0.00  0.71  0.00  0.00  0.29  0.09  0.00
  8060c                   1.00   0.00  0.00  0.00  0.00  0.00  0.00  1.00  0.00  0.00
  8060d                   1.00   0.00  0.00  0.00  0.83  0.00  0.00  0.17  0.12  0.00
  8060e                   1.00   0.00  0.00  0.00  0.72  0.00  0.00  0.27  0.10  0.00
  8100                    1.00   0.00  0.00  0.00  0.98  0.02  0.00  0.00  0.89  0.00
  8100a                   1.00   0.00  0.00  0.00  0.98  0.02  0.00  0.00  0.89  0.00
  8100b                   1.00   0.00  0.00  0.00  0.98  0.02  0.00  0.00  0.88  0.00
  8100c                   1.00   0.00  0.00  0.00  0.98  0.02  0.00  0.00  0.89  0.00
  8100d                   1.00   0.00  0.00  0.00  0.98  0.02  0.00  0.00  0.89  0.00
  8100e                   1.00   0.00  0.00  0.00  0.98  0.02  0.00  0.00  0.03  0.00
  8130                    1.00   0.00  0.00  0.00  0.98  0.02  0.00  0.00  0.45  0.00
  8130a                   1.00   0.00  0.00  0.00  0.98  0.02  0.00  0.00  0.45  0.00
  8130b                   1.00   0.00  0.00  0.00  1.00  0.00  0.00  0.00  0.65  0.00
  8130c                   1.00   0.00  0.00  0.00  0.88  0.12  0.00  0.00  0.00  0.00
  8130d                   1.00   0.00  0.00  0.00  0.98  0.02  0.00  0.00  0.45  0.00
  8130e                   1.00   0.00  0.00  0.00  1.00  0.00  0.00  0.00  0.07  0.00
  
  
  *************************
  Conduit Surcharge Summary
  *************************
  
  ----------------------------------------------------------------------------
                                                           Hours        Hours 
                         --------- Hours Full --------   Above Full   Capacity
  Conduit                Both Ends  Upstream  Dnstream   Normal Flow   Limited
  ----------------------------------------------------------------------------
  1570                        0.01      0.01      3.62      0.01         0.01
  1600                        1.80      1.80      2.91      0.01         0.01
  1602                        0.01      0.01      3.19      0.38         0.01
  1602a                       0.01      3.19      0.01      3.13         0.01
  1602b                       0.01      2.85      0.01      2.73         0.01
  1602d                       0.01      3.67      0.01      3.52         0.01
  1602e                       0.01      2.91      0.01      2.80         0.01
  8040                        0.01      5.89      0.01      5.91         0.01
  8040a                       2.69      2.69      2.80      0.01         0.01
  8040b                       2.23      2.23      2.44      0.01         0.01
  8040d                       2.15      2.15      2.89      0.01         0.01
  8040e                       2.32      2.32      2.51      0.01         0.01
  8060a                       2.80      2.80      2.91      0.07         0.01
  8060b                       2.44      2.44      2.59      0.01         0.01
  8060d                       2.89      2.89      3.48      0.01         0.01
  8060e                       2.51      2.51      2.67      0.01         0.01
  8100e                       2.13      2.13      5.33      0.01         0.01
  8130e                       0.01      0.01      5.33      0.01         0.01
  
  
  ***************
  Pumping Summary
  ***************
  
  ---------------------------------------------------------------------------------------------------------
                                                  Min       Avg       Max     Total     Power    % Time Off
                        Percent   Number of      Flow      Flow      Flow    Volume     Usage    Pump Curve
  Pump                 Utilized   Start-Ups       CFS       CFS       CFS  10^6 gal     Kw-hr    Low   High
  ---------------------------------------------------------------------------------------------------------
  Pump1                  100.00           1      0.00      9.58     15.00     1.174     33.32    0.0   42.4
  

  Analysis begun on:  Tue Nov 20 16:40:23 2018
  Analysis ended on:  Tue Nov 20 16:40:23 2018
  Total elapsed time: < 1 sec