
  EPA STORM WATER MANAGEMENT MODEL - VERSION 5.1 (Build 5.1.012)
  --------------------------------------------------------------

                                                                                                    Extran with surcharge in 2 foot circular conduits 
                                                                                                    SWMM CRADA Example 
                                                                                                    MSTFile 
  
  
  *********************************************************
  NOTE: The summary statistics displayed in this report are
  based on results found at every computational time step,  
  not just on results from each reporting time step.
  *********************************************************
  
  ****************
  Analysis Options
  ****************
  Flow Units ............... CFS
  Process Models:
    Rainfall/Runoff ........ NO
    RDII ................... NO
    Snowmelt ............... NO
    Groundwater ............ NO
    Flow Routing ........... YES
    Ponding Allowed ........ NO
    Water Quality .......... NO
  Flow Routing Method ...... DYNWAVE
  Starting Date ............ 02/22/2002 00:00:00
  Ending Date .............. 02/22/2002 01:06:00
  Antecedent Dry Days ...... 0.0
  Report Time Step ......... 00:00:10
  Routing Time Step ........ 10.00 sec
  Variable Time Step ....... YES
  Maximum Trials ........... 8
  Number of Threads ........ 1
  Head Tolerance ........... 0.005000 ft
  
  
  **************************        Volume        Volume
  Flow Routing Continuity        acre-feet      10^6 gal
  **************************     ---------     ---------
  Dry Weather Inflow .......         0.000         0.000
  Wet Weather Inflow .......         0.000         0.000
  Groundwater Inflow .......         0.000         0.000
  RDII Inflow ..............         0.000         0.000
  External Inflow ..........         1.608         0.524
  External Outflow .........         1.528         0.498
  Flooding Loss ............         0.000         0.000
  Evaporation Loss .........         0.000         0.000
  Exfiltration Loss ........         0.000         0.000
  Initial Stored Volume ....         0.000         0.000
  Final Stored Volume ......         0.071         0.023
  Continuity Error (%) .....         0.532
  
  
  ***************************
  Time-Step Critical Elements
  ***************************
  Link outlet (88.06%)
  Link pipe1 (5.01%)
  
  
  ********************************
  Highest Flow Instability Indexes
  ********************************
  All links are stable.
  
  
  *************************
  Routing Time Step Summary
  *************************
  Minimum Time Step           :     1.11 sec
  Average Time Step           :     5.08 sec
  Maximum Time Step           :    10.00 sec
  Percent in Steady State     :    -0.00
  Average Iterations per Step :     2.78
  Percent Not Converging      :     9.76
  
  
  ******************
  Node Depth Summary
  ******************
  
  ---------------------------------------------------------------------------------
                                 Average  Maximum  Maximum  Time of Max    Reported
                                   Depth    Depth      HGL   Occurrence   Max Depth
  Node                 Type         Feet     Feet     Feet  days hr:min        Feet
  ---------------------------------------------------------------------------------
  Inflow               JUNCTION     6.67     7.54    18.54     0  00:15        7.54
  mid1                 JUNCTION     7.16     7.99    17.99     0  00:15        7.98
  mid2                 JUNCTION     5.66     6.42    17.42     0  00:15        6.42
  mid3                 JUNCTION     6.14     6.85    16.85     0  00:15        6.85
  mid4                 JUNCTION     4.66     5.29    16.29     0  00:15        5.29
  mid5                 JUNCTION     5.12     5.72    15.72     0  00:15        5.72
  mid6                 JUNCTION     3.66     4.15    15.15     0  00:15        4.15
  mid7                 JUNCTION     4.11     4.59    14.59     0  00:15        4.58
  mid8                 JUNCTION     2.66     3.02    14.02     0  00:15        3.02
  mid9                 JUNCTION     3.10     3.45    13.45     0  00:15        3.45
  Outlet               OUTFALL      1.15     1.30    12.30     0  00:15        1.30
  
  
  *******************
  Node Inflow Summary
  *******************
  
  -------------------------------------------------------------------------------------------------
                                  Maximum  Maximum                  Lateral       Total        Flow
                                  Lateral    Total  Time of Max      Inflow      Inflow     Balance
                                   Inflow   Inflow   Occurrence      Volume      Volume       Error
  Node                 Type           CFS      CFS  days hr:min    10^6 gal    10^6 gal     Percent
  -------------------------------------------------------------------------------------------------
  Inflow               JUNCTION     20.00    20.00     0  00:15       0.524       0.524       0.273
  mid1                 JUNCTION      0.00    20.02     0  00:15           0       0.522       0.551
  mid2                 JUNCTION      0.00    20.03     0  00:15           0        0.52       0.542
  mid3                 JUNCTION      0.00    20.05     0  00:15           0       0.517       0.548
  mid4                 JUNCTION      0.00    20.06     0  00:15           0       0.514       0.527
  mid5                 JUNCTION      0.00    20.08     0  00:16           0       0.511       0.553
  mid6                 JUNCTION      0.00    20.09     0  00:16           0       0.509       0.521
  mid7                 JUNCTION      0.00    20.11     0  00:16           0       0.506       0.539
  mid8                 JUNCTION      0.00    20.12     0  00:16           0       0.503       0.520
  mid9                 JUNCTION      0.00    20.13     0  00:16           0       0.501       0.536
  Outlet               OUTFALL       0.00    20.14     0  00:15           0       0.498       0.000
  
  
  **********************
  Node Surcharge Summary
  **********************
  
  Surcharging occurs when water rises above the top of the highest conduit.
  ---------------------------------------------------------------------
                                               Max. Height   Min. Depth
                                   Hours       Above Crown    Below Rim
  Node                 Type      Surcharged           Feet         Feet
  ---------------------------------------------------------------------
  Inflow               JUNCTION        0.96          5.544        1.456
  mid1                 JUNCTION        1.01          5.985        2.015
  mid2                 JUNCTION        0.95          4.419        2.581
  mid3                 JUNCTION        1.00          4.855        3.145
  mid4                 JUNCTION        0.94          3.288        3.712
  mid5                 JUNCTION        0.98          3.719        4.281
  mid6                 JUNCTION        0.93          2.152        4.848
  mid7                 JUNCTION        0.96          2.585        5.415
  mid8                 JUNCTION        0.93          1.017        5.983
  mid9                 JUNCTION        0.95          1.445        6.555
  
  
  *********************
  Node Flooding Summary
  *********************
  
  No nodes were flooded.
  
  
  ***********************
  Outfall Loading Summary
  ***********************
  
  -----------------------------------------------------------
                         Flow       Avg       Max       Total
                         Freq      Flow      Flow      Volume
  Outfall Node           Pcnt       CFS       CFS    10^6 gal
  -----------------------------------------------------------
  Outlet                92.17     19.17     20.14       0.498
  -----------------------------------------------------------
  System                92.17     19.17     20.14       0.498
  
  
  ********************
  Link Flow Summary
  ********************
  
  -----------------------------------------------------------------------------
                                 Maximum  Time of Max   Maximum    Max/    Max/
                                  |Flow|   Occurrence   |Veloc|    Full    Full
  Link                 Type          CFS  days hr:min    ft/sec    Flow   Depth
  -----------------------------------------------------------------------------
  pipe1                CONDUIT     20.02     0  00:15      6.37    0.75    1.00
  pipe2                CONDUIT     20.03     0  00:15      6.38    0.75    1.00
  pipe3                CONDUIT     20.05     0  00:15      6.45    0.75    1.00
  pipe4                CONDUIT     20.06     0  00:15      6.39    0.75    1.00
  pipe5                CONDUIT     20.08     0  00:16      7.22    0.75    1.00
  pipe6                CONDUIT     20.09     0  00:16      6.40    0.75    1.00
  pipe7                CONDUIT     20.11     0  00:16      7.70    0.75    1.00
  pipe8                CONDUIT     20.12     0  00:16      6.41    0.75    1.00
  pipe9                CONDUIT     20.13     0  00:16      7.90    0.75    1.00
  outlet               CONDUIT     20.14     0  00:15      7.27    0.75    0.82
  
  
  ***************************
  Flow Classification Summary
  ***************************
  
  -------------------------------------------------------------------------------------
                      Adjusted    ---------- Fraction of Time in Flow Class ---------- 
                       /Actual         Up    Down  Sub   Sup   Up    Down  Norm  Inlet 
  Conduit               Length    Dry  Dry   Dry   Crit  Crit  Crit  Crit  Ltd   Ctrl  
  -------------------------------------------------------------------------------------
  pipe1                   1.00   0.00  0.00  0.00  0.99  0.01  0.00  0.00  0.03  0.00
  pipe2                   1.00   0.00  0.02  0.00  0.98  0.00  0.00  0.00  0.00  0.00
  pipe3                   1.00   0.02  0.00  0.00  0.97  0.01  0.00  0.00  0.02  0.00
  pipe4                   1.00   0.02  0.01  0.00  0.97  0.00  0.00  0.00  0.00  0.00
  pipe5                   1.00   0.03  0.00  0.00  0.96  0.01  0.00  0.00  0.02  0.00
  pipe6                   1.00   0.03  0.01  0.00  0.95  0.00  0.00  0.00  0.00  0.00
  pipe7                   1.00   0.05  0.00  0.00  0.94  0.01  0.00  0.00  0.01  0.00
  pipe8                   1.00   0.05  0.01  0.00  0.94  0.00  0.00  0.00  0.00  0.00
  pipe9                   1.00   0.06  0.00  0.00  0.93  0.01  0.00  0.00  0.01  0.00
  outlet                  1.00   0.06  0.01  0.00  0.92  0.00  0.00  0.00  0.00  0.00
  
  
  *************************
  Conduit Surcharge Summary
  *************************
  
  ----------------------------------------------------------------------------
                                                           Hours        Hours 
                         --------- Hours Full --------   Above Full   Capacity
  Conduit                Both Ends  Upstream  Dnstream   Normal Flow   Limited
  ----------------------------------------------------------------------------
  pipe1                       0.96      0.96      1.01      0.01         0.01
  pipe2                       0.95      0.95      1.01      0.01         0.01
  pipe3                       0.95      0.95      1.00      0.01         0.01
  pipe4                       0.94      0.94      1.00      0.01         0.01
  pipe5                       0.94      0.94      0.98      0.01         0.01
  pipe6                       0.93      0.93      0.98      0.01         0.01
  pipe7                       0.93      0.93      0.96      0.01         0.01
  pipe8                       0.93      0.93      0.96      0.01         0.01
  pipe9                       0.93      0.93      0.95      0.01         0.01
  outlet                      0.01      0.01      0.95      0.01         0.01
  

  Analysis begun on:  Tue Nov 20 16:40:24 2018
  Analysis ended on:  Tue Nov 20 16:40:24 2018
  Total elapsed time: < 1 sec