
  EPA STORM WATER MANAGEMENT MODEL - VERSION 5.1 (Build 5.1.012)
  --------------------------------------------------------------

  
  *********************************************************
  NOTE: The summary statistics displayed in this report are
  based on results found at every computational time step,  
  not just on results from each reporting time step.
  *********************************************************
  
  ****************
  Analysis Options
  ****************
  Flow Units ............... CFS
  Process Models:
    Rainfall/Runoff ........ YES
    RDII ................... NO
    Snowmelt ............... NO
    Groundwater ............ NO
    Flow Routing ........... NO
    Water Quality .......... NO
  Infiltration Method ...... HORTON
  Starting Date ............ 11/23/2017 00:00:00
  Ending Date .............. 11/23/2017 16:00:00
  Antecedent Dry Days ...... 0.0
  Report Time Step ......... 00:15:00
  Wet Time Step ............ 00:05:00
  Dry Time Step ............ 01:00:00
  
  
  **************************        Volume         Depth
  Runoff Quantity Continuity     acre-feet        inches
  **************************     ---------       -------
  Total Precipitation ......         3.333         2.000
  Evaporation Loss .........         0.000         0.000
  Infiltration Loss ........         2.674         1.604
  Surface Runoff ...........         0.659         0.396
  Final Storage ............         0.000         0.000
  Continuity Error (%) .....        -0.003
  
  
  ***************************
  Subcatchment Runoff Summary
  ***************************
  
  --------------------------------------------------------------------------------------------------------
                            Total      Total      Total      Total      Total       Total     Peak  Runoff
                           Precip      Runon       Evap      Infil     Runoff      Runoff   Runoff   Coeff
  Subcatchment                 in         in         in         in         in    10^6 gal      CFS
  --------------------------------------------------------------------------------------------------------
  1                          2.00       0.00       0.00       1.60       0.40        0.05     0.42   0.198
  2                          2.00       0.00       0.00       1.60       0.40        0.05     0.42   0.198
  3                          2.00       0.00       0.00       1.60       0.40        0.05     0.42   0.198
  4                          2.00       0.00       0.00       1.60       0.40        0.05     0.42   0.198
  

  Analysis begun on:  Tue Nov 20 16:39:29 2018
  Analysis ended on:  Tue Nov 20 16:39:29 2018
  Total elapsed time: < 1 sec