
  EPA STORM WATER MANAGEMENT MODEL - VERSION 5.1 (Build 5.1.012)
  --------------------------------------------------------------

  Example User5 
  
  
  *********************************************************
  NOTE: The summary statistics displayed in this report are
  based on results found at every computational time step,  
  not just on results from each reporting time step.
  *********************************************************
  
  ****************
  Analysis Options
  ****************
  Flow Units ............... CFS
  Process Models:
    Rainfall/Runoff ........ YES
    RDII ................... NO
    Snowmelt ............... NO
    Groundwater ............ NO
    Flow Routing ........... YES
    Ponding Allowed ........ NO
    Water Quality .......... NO
  Infiltration Method ...... HORTON
  Flow Routing Method ...... DYNWAVE
  Starting Date ............ 08/11/1998 00:00:00
  Ending Date .............. 08/11/1998 23:59:00
  Antecedent Dry Days ...... 0.0
  Report Time Step ......... 00:05:00
  Wet Time Step ............ 00:01:00
  Dry Time Step ............ 00:01:00
  Routing Time Step ........ 30.00 sec
  Variable Time Step ....... YES
  Maximum Trials ........... 8
  Number of Threads ........ 1
  Head Tolerance ........... 0.005000 ft
  
  
  **************************        Volume         Depth
  Runoff Quantity Continuity     acre-feet        inches
  **************************     ---------       -------
  Total Precipitation ......       287.426         2.930
  Evaporation Loss .........         4.314         0.044
  Infiltration Loss ........       108.755         1.109
  Surface Runoff ...........       173.623         1.770
  Final Storage ............         0.801         0.008
  Continuity Error (%) .....        -0.023
  
  
  **************************        Volume        Volume
  Flow Routing Continuity        acre-feet      10^6 gal
  **************************     ---------     ---------
  Dry Weather Inflow .......         0.000         0.000
  Wet Weather Inflow .......       173.433        56.516
  Groundwater Inflow .......         0.000         0.000
  RDII Inflow ..............         0.000         0.000
  External Inflow ..........       121.449        39.576
  External Outflow .........       223.742        72.910
  Flooding Loss ............         0.000         0.000
  Evaporation Loss .........         0.275         0.090
  Exfiltration Loss ........         0.000         0.000
  Initial Stored Volume ....         3.241         1.056
  Final Stored Volume ......        80.159        26.121
  Continuity Error (%) .....        -2.030
  
  
  *************************
  Highest Continuity Errors
  *************************
  Node 3SB22 (35.35%)
  Node 4SB21 (26.19%)
  Node 2SB21 (17.77%)
  Node 5SB21_OF (6.04%)
  Node 0.10_RM (5.30%)
  
  
  ***************************
  Time-Step Critical Elements
  ***************************
  Link Brad_Out (91.42%)
  Link DEERWPIPE (2.67%)
  Link 789pipe (2.23%)
  
  
  ********************************
  Highest Flow Instability Indexes
  ********************************
  Link 812pipe (44)
  Link 892pipe (42)
  Link 36inch_2 (42)
  Link 54inch_2 (27)
  Link 771pipe (25)
  
  
  *************************
  Routing Time Step Summary
  *************************
  Minimum Time Step           :     0.50 sec
  Average Time Step           :     2.05 sec
  Maximum Time Step           :    30.00 sec
  Percent in Steady State     :    -0.00
  Average Iterations per Step :     2.02
  Percent Not Converging      :     0.08
  
  
  ***************************
  Subcatchment Runoff Summary
  ***************************
  
  --------------------------------------------------------------------------------------------------------
                            Total      Total      Total      Total      Total       Total     Peak  Runoff
                           Precip      Runon       Evap      Infil     Runoff      Runoff   Runoff   Coeff
  Subcatchment                 in         in         in         in         in    10^6 gal      CFS
  --------------------------------------------------------------------------------------------------------
  1SB5#1                     2.93       0.00       0.05       0.90       1.97        0.29    15.42   0.673
  2SB5#1                     2.93       0.00       0.05       0.89       1.98        0.18     8.67   0.675
  1SB23#1                    2.93       0.00       0.05       0.86       2.01        0.42    20.14   0.685
  2SB23#1                    2.93       0.00       0.04       1.07       1.81        0.32    17.41   0.619
  4SB23#1                    2.93       0.00       0.05       0.92       1.95        0.22     9.99   0.664
  3SB23#1                    2.93       0.00       0.04       0.96       1.92        0.31    16.80   0.655
  49SB1#1                    2.93       0.00       0.03       1.40       1.50        0.53    21.78   0.511
  51SB1#1                    2.93       0.00       0.05       0.77       2.11        0.07     5.76   0.720
  1121#1                     2.93       0.00       0.05       1.21       1.67        0.97    36.00   0.570
  6SB3#1                     2.93       0.00       0.04       1.13       1.76        0.16     9.09   0.601
  4SB3#1                     2.93       0.00       0.05       0.96       1.91        0.15     7.81   0.653
  5SB3#1                     2.93       0.00       0.04       0.98       1.90        0.13     7.58   0.648
  3SB3#1                     2.93       0.00       0.05       0.79       2.09        0.13     9.67   0.712
  2SB3#1                     2.93       0.00       0.04       0.96       1.92        0.13     8.37   0.655
  8SB3_OF#1                  2.93       0.00       0.02       1.40       1.50        0.18     9.63   0.514
  1SB4#1                     2.93       0.00       0.05       0.86       2.02        0.12     8.27   0.690
  2SB4#1                     2.93       0.00       0.05       0.85       2.02        0.08     5.08   0.691
  44SB1#1                    2.93       0.00       0.05       1.14       1.73        0.28     9.73   0.589
  45SB1#1                    2.93       0.00       0.04       1.14       1.75        0.25    11.51   0.596
  43SB1#1                    2.93       0.00       0.05       0.81       2.06        0.25    13.39   0.704
  8SB1#1                     2.93       0.00       0.04       1.43       1.45        0.40    13.55   0.495
  6SB1#1                     2.93       0.00       0.03       1.56       1.34        0.27     9.41   0.459
  2SB1#1                     2.93       0.00       0.09       0.26       2.53        0.22     5.27   0.863
  3SB1#1                     2.93       0.00       0.05       1.15       1.72        0.33    12.90   0.587
  4SB1#1                     2.93       0.00       0.04       1.33       1.54        0.46    15.77   0.527
  5SB1#1                     2.93       0.00       0.04       1.29       1.60        0.70    30.55   0.546
  7SB1#1                     2.93       0.00       0.04       1.27       1.62        0.45    19.06   0.552
  9SB1#1                     2.93       0.00       0.04       1.46       1.43        0.46    15.86   0.487
  11SB1#1                    2.93       0.00       0.06       0.73       2.13        0.36    15.65   0.726
  32SB1#1                    2.93       0.00       0.06       0.83       2.03        0.23     9.30   0.691
  34SB1#1                    2.93       0.00       0.05       0.89       1.97        0.47    18.64   0.672
  39SB1#1                    2.93       0.00       0.05       1.03       1.84        0.45    20.07   0.628
  38SB1#1                    2.93       0.00       0.05       0.95       1.91        0.19     7.22   0.653
  37SB1#1                    2.93       0.00       0.04       1.08       1.80        0.17     9.54   0.616
  35SB1#1                    2.93       0.00       0.05       1.00       1.88        0.29    14.94   0.642
  33SB1#1                    2.93       0.00       0.05       1.00       1.88        0.23    11.32   0.641
  12SB1#1                    2.93       0.00       0.05       1.06       1.81        0.31    12.34   0.618
  22SB1#1                    2.93       0.00       0.04       1.04       1.84        0.28    13.81   0.627
  21SB1#1                    2.93       0.00       0.04       1.18       1.71        0.53    22.72   0.582
  14SB1#1                    2.93       0.00       0.05       1.09       1.77        0.48    16.28   0.604
  13SB1#1                    2.93       0.00       0.04       1.10       1.79        0.37    17.63   0.609
  23SB1#1                    2.93       0.00       0.05       1.23       1.64        0.47    15.64   0.558
  20SB1#1                    2.93       0.00       0.04       1.11       1.78        0.43    21.36   0.607
  24SB1#1                    2.93       0.00       0.04       0.92       1.97        0.20    14.04   0.672
  26SB1#1                    2.93       0.00       0.04       1.08       1.80        0.20    11.53   0.616
  27SB1#1                    2.93       0.00       0.04       1.01       1.87        0.25    13.97   0.639
  28SB1#1                    2.93       0.00       0.05       1.02       1.85        0.51    20.81   0.631
  25SB1#1                    2.93       0.00       0.05       1.06       1.81        0.59    23.29   0.617
  19SB1#1                    2.93       0.00       0.04       1.07       1.81        0.27    12.26   0.616
  18SB1#1                    2.93       0.00       0.05       0.80       2.07        0.17     9.02   0.705
  15SB1#1                    2.93       0.00       0.05       1.00       1.87        0.21    10.34   0.639
  31SB1#1                    2.93       0.00       0.06       0.71       2.14        0.62    21.95   0.729
  40SB1#1                    2.93       0.00       0.04       1.22       1.66        0.70    32.25   0.568
  41SB1#1                    2.93       0.00       0.03       1.72       1.18        0.45    12.56   0.403
  46SB1#1                    2.93       0.00       0.04       1.07       1.81        0.31    14.29   0.617
  4SB5_OF#1                  2.93       0.00       0.03       1.24       1.67        0.15    11.61   0.569
  15SB6#1                    2.93       0.00       0.05       0.90       1.97        0.57    30.30   0.674
  14SB6#1                    2.93       0.00       0.03       1.61       1.29        0.17     5.05   0.442
  12SB6#1                    2.93       0.00       0.07       0.18       2.67        0.32    24.55   0.910
  19SB6#1                    2.93       0.00       0.04       1.09       1.80        0.24    13.81   0.613
  26SB6#1                    2.93       0.00       0.04       0.94       1.94        0.14     8.40   0.663
  25SB6#1                    2.93       0.00       0.04       1.02       1.86        0.39    19.74   0.634
  24SB6#1                    2.93       0.00       0.04       0.99       1.89        0.49    25.79   0.643
  20SB6#1                    2.93       0.00       0.04       1.09       1.80        0.18    11.19   0.615
  18SB6#1                    2.93       0.00       0.04       1.16       1.73        0.22    10.14   0.589
  17SB6#1                    2.93       0.00       0.06       0.69       2.17        0.21    10.76   0.739
  16SB6#1                    2.93       0.00       0.05       0.90       1.98        0.43    21.81   0.674
  11SB6#1                    2.93       0.00       0.05       0.85       2.01        0.37    16.27   0.686
  10SB6#1                    2.93       0.00       0.07       0.43       2.40        0.58    21.37   0.819
  21SB6#1                    2.93       0.00       0.04       1.01       1.87        0.23    12.48   0.639
  22SB6#1                    2.93       0.00       0.04       0.96       1.92        0.28    15.91   0.655
  23SB6#1                    2.93       0.00       0.05       0.86       2.02        0.37    20.96   0.688
  13SB6#1                    2.93       0.00       0.05       1.07       1.81        0.61    26.90   0.617
  7SB6#1                     2.93       0.00       0.06       0.53       2.32        0.18     8.55   0.792
  8SB6#1                     2.93       0.00       0.04       1.26       1.63        0.30    11.27   0.556
  5SB6#1                     2.93       0.00       0.03       1.35       1.55        0.24    13.02   0.530
  4SB6#1                     2.93       0.00       0.04       1.10       1.78        0.25    10.94   0.606
  3SB6#1                     2.93       0.00       0.04       1.04       1.84        0.21    10.81   0.628
  1SB22#1                    2.93       0.00       0.05       0.89       1.98        0.22    10.60   0.677
  2SB22#1                    2.93       0.00       0.03       1.64       1.25        0.20     5.37   0.428
  2SB21#1                    2.93       0.00       0.04       1.54       1.35        0.21     6.67   0.462
  1SB21#1                    2.93       0.00       0.05       0.85       2.03        0.19    10.99   0.692
  1SB20#1                    2.93       0.00       0.05       0.83       2.03        0.25    10.91   0.693
  1SB7#1                     2.93       0.00       0.03       1.24       1.65        0.25    12.37   0.564
  2SB7#1                     2.93       0.00       0.05       0.94       1.94        0.08     4.54   0.661
  3SB7#1                     2.93       0.00       0.03       1.26       1.63        0.09     4.54   0.557
  5SB7_OF#1                  2.93       0.00       0.02       1.39       1.52        0.26    17.39   0.519
  2SB20_OF#1                 2.93       0.00       0.05       0.89       1.98        0.33    18.61   0.676
  1SB19#1                    2.93       0.00       0.06       0.74       2.12        0.37    16.15   0.724
  2SB19#1                    2.93       0.00       0.03       1.67       1.24        0.11     3.36   0.422
  4SB19_OF#1                 2.93       0.00       0.02       1.41       1.50        0.11     7.47   0.512
  4SB9#1                     2.93       0.00       0.03       1.42       1.48        0.61    24.19   0.505
  3SB9#1                     2.93       0.00       0.03       1.45       1.46        0.26    11.10   0.497
  1SB9#1                     2.93       0.00       0.04       1.20       1.68        0.41    18.25   0.574
  SB1018_OF#1                2.93       0.00       0.02       1.35       1.56        0.10     7.37   0.532
  SB1018_OF#2                2.93       0.00       0.03       1.06       1.84        0.21    18.73   0.628
  SB1018_OF#3                2.93       0.00       0.04       0.88       2.00        0.65    47.16   0.682
  17SB11#1                   2.93       0.00       0.05       1.10       1.77        1.15    46.00   0.605
  17SB11#2                   2.93       0.00       0.04       1.33       1.56        1.58    65.74   0.532
  17SB11#3                   2.93       0.00       0.06       0.57       2.30        0.57    46.53   0.785
  16SB11#1                   2.93       0.00       0.05       1.09       1.78        1.23    52.12   0.608
  15SB11#1                   2.93       0.00       0.04       1.24       1.65        0.76    32.03   0.562
  14SB11#1                   2.93       0.00       0.04       1.26       1.62        0.50    20.65   0.554
  13SB11#1                   2.93       0.00       0.04       1.23       1.66        0.82    39.58   0.568
  5SB11#1                    2.93       0.00       0.06       0.53       2.32        0.57    28.33   0.793
  11SB11#1                   2.93       0.00       0.04       1.15       1.74        0.35    17.75   0.593
  10SB11#1                   2.93       0.00       0.04       1.15       1.74        0.36    19.04   0.593
  9SB11#1                    2.93       0.00       0.03       1.39       1.51        0.24    10.70   0.516
  12SB11#1                   2.93       0.00       0.07       0.43       2.41        0.41    17.74   0.822
  8SB11#1                    2.93       0.00       0.05       0.59       2.28        0.19    14.41   0.777
  7SB11#1                    2.93       0.00       0.07       0.34       2.50        0.28    16.05   0.854
  6SB11#1                    2.93       0.00       0.07       0.47       2.36        0.60    21.44   0.805
  4SB11#1                    2.93       0.00       0.07       0.50       2.34        0.73    32.52   0.799
  2SB11#1                    2.93       0.00       0.07       0.52       2.32        0.81    30.07   0.791
  2SB11#2                    2.93       0.00       0.06       0.69       2.17        1.00    52.83   0.742
  5SB17#1                    2.93       0.00       0.04       1.08       1.80        0.41    18.47   0.615
  8SB17#1                    2.93       0.00       0.04       1.25       1.64        0.39    17.35   0.560
  7SB17#1                    2.93       0.00       0.04       1.10       1.78        0.35    16.37   0.607
  6SB17#1                    2.93       0.00       0.04       1.19       1.70        0.25    12.73   0.579
  9SB17#1                    2.93       0.00       0.03       1.34       1.56        0.23    11.41   0.534
  16SB17#1                   2.93       0.00       0.04       1.27       1.62        0.18     7.93   0.552
  10SB17#1                   2.93       0.00       0.03       1.52       1.38        0.27     9.34   0.471
  14SB17#1                   2.93       0.00       0.04       1.30       1.58        0.19     7.24   0.539
  11SB17#1                   2.93       0.00       0.04       1.14       1.75        0.23    12.01   0.596
  13SB17#1                   2.93       0.00       0.04       1.84       1.05        0.10     2.06   0.358
  17SB17#1                   2.93       0.00       0.04       1.60       1.28        0.32     8.94   0.437
  4SB17#1                    2.93       0.00       0.04       0.97       1.91        0.36    20.76   0.652
  3SB17#1                    2.93       0.00       0.05       0.85       2.02        0.35    16.24   0.688
  2SB17#1                    2.93       0.00       0.06       0.83       2.03        0.51    21.06   0.693
  SB1216_OF#1                2.93       0.00       0.05       0.75       2.12        0.43    20.99   0.722
  SB1216_OF#2                2.93       0.00       0.07       0.17       2.68        0.28    22.85   0.913
  1SB14#1                    2.93       0.00       0.04       0.94       1.94        0.18    10.83   0.661
  2SB14#1                    2.93       0.00       0.04       1.26       1.63        0.71    32.21   0.556
  3SB14#1                    2.93       0.00       0.04       1.20       1.69        0.28    13.73   0.577
  4SB14#1                    2.93       0.00       0.04       1.12       1.77        0.26    15.57   0.603
  7SB14#1                    2.93       0.00       0.02       1.55       1.36        0.18     6.68   0.463
  6SB14#1                    2.93       0.00       0.05       0.81       2.06        0.18    10.78   0.704
  5SB14#1                    2.93       0.00       0.02       1.61       1.30        0.13     4.48   0.443
  9SB14#1                    2.93       0.00       0.04       1.08       1.81        0.30    15.72   0.617
  8SB14#1                    2.93       0.00       0.05       0.81       2.07        0.12     7.96   0.705
  10SB14#1                   2.93       0.00       0.06       0.73       2.11        0.49    16.74   0.722
  11SB14_OF#1                2.93       0.00       0.03       1.71       1.19        0.59    15.34   0.407
  11SB14_OF#2                2.93       0.00       0.05       0.78       2.09        0.95    45.01   0.714
  0.10_UP#1                  2.93       0.00       0.04       1.30       1.58        4.85   190.21   0.540
  3SB21#1                    2.93       0.00       0.03       1.50       1.39        0.16     5.45   0.476
  
  
  ******************
  Node Depth Summary
  ******************
  
  ---------------------------------------------------------------------------------
                                 Average  Maximum  Maximum  Time of Max    Reported
                                   Depth    Depth      HGL   Occurrence   Max Depth
  Node                 Type         Feet     Feet     Feet  days hr:min        Feet
  ---------------------------------------------------------------------------------
  0.10_RM              JUNCTION     9.33     9.93   650.53     0  01:10        9.93
  0.10_UP              JUNCTION     9.24     9.99   650.69     0  01:09        9.99
  0.15_RM              JUNCTION     6.09     6.98   650.88     0  01:09        6.97
  102                  JUNCTION     0.16     3.10   687.60     0  00:20        3.09
  1050                 JUNCTION     2.01     4.90   678.23     0  02:20        4.90
  10SB1                JUNCTION     1.36     5.37   681.91     0  00:36        5.37
  10SB11               JUNCTION     0.09     1.19   693.99     0  00:15        1.18
  10SB14               JUNCTION     0.54     7.73   659.73     0  00:27        7.73
  10SB17               JUNCTION     0.37     6.40   672.43     0  00:30        6.40
  10SB6                JUNCTION     0.50     7.24   688.16     0  00:28        7.24
  1118                 JUNCTION     1.72     9.27   681.17     0  00:42        9.15
  1119                 JUNCTION     1.75     9.43   681.30     0  00:37        9.23
  1120                 JUNCTION     1.79     9.77   681.60     0  00:43        9.55
  1121                 JUNCTION     1.82     9.90   681.70     0  00:43        9.64
  1122                 JUNCTION     1.84     9.94   681.71     0  00:43        9.69
  1123                 JUNCTION     1.87     9.68   681.41     0  00:36        9.46
  1124                 JUNCTION     1.90     9.47   681.17     0  00:36        9.30
  1125                 JUNCTION     1.93     9.49   681.16     0  00:36        9.24
  1126                 JUNCTION     1.97     9.82   681.45     0  00:36        9.13
  1127                 JUNCTION     1.99     9.88   681.48     0  00:36        9.19
  1128                 JUNCTION     1.47     6.99   678.58     0  00:42        6.71
  11SB1                JUNCTION     0.10     0.85   683.98     0  00:22        0.85
  11SB11               JUNCTION     0.07     0.88   695.68     0  00:13        0.88
  11SB14_OF            JUNCTION     4.60     6.78   652.28     0  01:08        6.77
  11SB17               JUNCTION     0.38     7.32   664.34     0  00:44        7.32
  11SB6                JUNCTION     0.60     7.29   691.29     0  00:18        7.29
  12SB1                JUNCTION     0.09     0.78   692.78     0  00:21        0.78
  12SB11               JUNCTION     0.08     0.64   744.94     0  00:21        0.64
  12SB6                JUNCTION     0.16     2.24   692.24     0  00:07        2.16
  13SB1                JUNCTION     0.17     1.40   689.80     0  00:24        1.40
  13SB11               JUNCTION     0.83    11.30   694.10     0  00:27       11.29
  13SB17               JUNCTION     0.65    10.53   663.71     0  00:47       10.51
  13SB6                JUNCTION     0.13     1.39   697.39     0  00:20        1.39
  14SB1                JUNCTION     0.15     1.26   696.26     0  00:22        1.26
  14SB11               JUNCTION     0.80    10.84   699.29     0  00:25       10.84
  14SB17               JUNCTION     0.67    10.22   666.16     0  00:49       10.22
  14SB6                JUNCTION     0.19     1.92   695.92     0  00:20        1.92
  15SB1                JUNCTION     0.35     2.53   681.03     0  00:24        2.53
  15SB11               JUNCTION     0.81    10.94   701.69     0  00:23       10.92
  15SB17               JUNCTION     0.55     7.95   666.95     0  00:39        7.95
  15SB6                JUNCTION     0.26     3.42   703.42     0  00:15        3.42
  16SB1                JUNCTION     1.06     5.25   680.75     0  00:30        5.25
  16SB11               JUNCTION     0.82    11.39   703.54     0  00:16       11.38
  16SB17               JUNCTION     0.07     0.68   669.18     0  00:15        0.67
  16SB6                JUNCTION     0.52     6.98   692.88     0  00:20        6.98
  17SB1                JUNCTION     1.13     4.68   680.09     0  00:31        4.67
  17SB11               JUNCTION     0.78    11.41   705.01     0  00:12       11.39
  17SB17               JUNCTION     0.36     6.02   668.41     0  00:30        6.02
  17SB6                JUNCTION     0.52     7.67   700.67     0  00:17        7.67
  18SB1                JUNCTION     0.19     1.86   682.76     0  00:21        1.86
  18SB17               JUNCTION     0.63     9.32   661.13     0  00:59        9.32
  18SB6                JUNCTION     0.46     8.43   709.43     0  00:16        8.42
  19SB1                JUNCTION     0.07     0.77   683.77     0  00:16        0.77
  19SB17               JUNCTION     2.17     7.88   656.23     0  01:04        7.87
  19SB6                JUNCTION     0.08     0.75   718.75     0  00:18        0.75
  1SB11_OF             JUNCTION     2.24     8.12   658.75     0  01:06        8.11
  1SB14                JUNCTION     0.05     0.63   691.13     0  00:13        0.63
  1SB17_OF             JUNCTION     2.41     6.41   654.37     0  01:07        6.38
  1SB19                JUNCTION     0.11     0.97   670.97     0  00:21        0.96
  1SB20                JUNCTION     0.07     0.72   678.72     0  00:21        0.72
  1SB21                JUNCTION     0.09     0.63   677.63     0  00:15        0.63
  1SB22                JUNCTION     0.09     0.65   679.65     0  00:16        0.64
  1SB23                JUNCTION     0.08     0.87   682.87     0  00:16        0.87
  1SB3_MIL             JUNCTION     0.33     2.69   682.60     0  00:37        2.69
  1SB4                 JUNCTION     0.04     0.60   683.15     0  00:12        0.59
  1SB5                 JUNCTION     0.07     0.81   678.41     0  00:15        0.81
  1SB6_OF              JUNCTION     6.57     8.19   674.17     0  01:02        8.19
  1SB7                 JUNCTION     0.06     0.75   679.16     0  00:14        0.75
  1SB9                 JUNCTION     0.11     2.18   678.28     0  00:15        2.18
  20SB1                JUNCTION     0.12     1.04   689.04     0  00:21        1.04
  20SB6                JUNCTION     0.08     1.02   710.52     0  00:15        1.02
  21SB1                JUNCTION     0.12     1.26   701.76     0  00:16        1.25
  21SB6                JUNCTION     0.05     0.68   710.68     0  00:15        0.68
  22SB1                JUNCTION     0.06     0.66   708.66     0  00:15        0.66
  22SB6                JUNCTION     0.07     0.87   706.87     0  00:15        0.87
  23SB1                JUNCTION     0.09     0.69   705.69     0  00:21        0.68
  23SB6                JUNCTION     0.12     1.64   698.64     0  00:16        1.63
  24SB1                JUNCTION     0.03     0.59   706.59     0  00:12        0.58
  24SB6                JUNCTION     0.09     1.08   717.48     0  00:15        1.08
  25SB1                JUNCTION     0.09     0.83   696.83     0  00:21        0.82
  25SB6                JUNCTION     0.09     1.04   719.84     0  00:15        1.04
  26SB1                JUNCTION     0.05     0.73   697.73     0  00:12        0.72
  26SB6                JUNCTION     0.04     0.57   724.47     0  00:12        0.57
  27SB1                JUNCTION     0.08     1.15   691.15     0  00:12        1.14
  28SB1                JUNCTION     0.10     1.21   689.21     0  00:15        1.21
  29SB1                JUNCTION     0.15     1.55   685.55     0  00:17        1.55
  2SB1                 JUNCTION     0.10     0.72   699.15     0  00:30        0.72
  2SB11                JUNCTION     0.97    12.68   677.13     0  00:38       12.68
  2SB14                JUNCTION     0.17     1.80   685.50     0  00:22        1.79
  2SB17                JUNCTION     0.43     6.05   674.18     0  00:24        6.05
  2SB19                JUNCTION     0.06     0.46   669.77     0  00:30        0.46
  2SB20_OF             JUNCTION    11.99    13.69   674.17     0  01:04       13.68
  2SB21                JUNCTION     4.82     5.66   673.26     0  02:43        5.66
  2SB22                JUNCTION     2.38     3.14   673.24     0  02:41        3.14
  2SB23                JUNCTION     0.07     0.90   678.90     0  00:14        0.89
  2SB2_MIL             JUNCTION     0.61     6.85   682.45     0  00:35        5.78
  2SB3                 JUNCTION     0.58     4.83   681.96     0  00:36        4.83
  2SB4                 JUNCTION     0.09     1.04   679.59     0  00:15        1.04
  2SB5                 JUNCTION     0.06     0.63   678.23     0  00:16        0.62
  2SB6                 JUNCTION     2.26     5.19   675.67     0  00:59        5.19
  2SB7                 JUNCTION     0.04     0.53   678.49     0  00:14        0.52
  2SB9                 JUNCTION     0.07     1.13   668.13     0  00:17        1.13
  30SB1                JUNCTION     0.21     1.97   684.07     0  00:19        1.97
  31SB1                JUNCTION     0.13     0.91   684.91     0  00:22        0.91
  32SB1                JUNCTION     0.21     2.18   680.35     0  00:37        2.17
  33SB1                JUNCTION     0.90     2.92   678.24     0  02:22        2.92
  34SB1                JUNCTION     0.09     0.78   686.78     0  00:21        0.77
  35SB1                JUNCTION     0.15     1.75   681.76     0  01:00        1.75
  36SB1                JUNCTION     0.31     3.25   681.76     0  00:59        3.25
  37SB1                JUNCTION     0.25     2.42   681.76     0  00:58        2.42
  38SB1                JUNCTION     0.10     0.98   683.18     0  00:21        0.97
  39SB1                JUNCTION     0.08     0.89   687.84     0  00:16        0.89
  3SB1                 JUNCTION     0.17     1.48   698.73     0  00:21        1.46
  3SB14                JUNCTION     0.13     1.30   683.30     0  00:23        1.30
  3SB17                JUNCTION     0.13     1.29   676.29     0  00:19        1.29
  3SB19                JUNCTION     0.08     1.05   665.87     0  00:21        1.04
  3SB21                JUNCTION     3.11     3.95   673.30     0  02:44        3.88
  3SB22                JUNCTION     3.83     4.65   673.25     0  02:42        4.63
  3SB23                JUNCTION     0.17     1.75   676.41     0  00:21        1.74
  3SB3                 JUNCTION     0.17     1.40   681.96     0  00:34        1.40
  3SB5                 JUNCTION     0.14     1.40   674.33     0  01:01        1.39
  3SB6                 JUNCTION     0.12     1.32   675.71     0  00:58        1.28
  3SB7                 JUNCTION     0.13     1.44   678.26     0  01:00        1.44
  3SB9                 JUNCTION     0.18     1.56   669.19     0  00:21        1.55
  40SB1                JUNCTION     1.36     3.63   678.63     0  00:31        3.63
  41SB1                JUNCTION     1.78     4.44   678.24     0  02:20        4.44
  42SB1                JUNCTION     2.14     5.37   678.23     0  02:19        5.37
  43SB1                JUNCTION     0.09     0.76   680.16     0  00:12        0.75
  44SB1                JUNCTION     0.09     0.71   681.01     0  00:21        0.70
  45SB1                JUNCTION     0.15     1.15   679.65     0  00:22        1.15
  46SB1                JUNCTION     1.98     5.09   676.60     0  00:58        5.09
  47SB1                JUNCTION     3.11     6.21   676.12     0  00:48        6.20
  48SB1_OF             JUNCTION     3.77     7.08   676.16     0  00:46        7.07
  49SB1                JUNCTION     4.12     5.58   678.20     0  00:45        5.58
  4SB1                 JUNCTION     0.16     1.55   697.11     0  00:21        1.54
  4SB11                JUNCTION     1.07    14.02   682.42     0  00:36       14.01
  4SB14                JUNCTION     0.12     1.17   678.17     0  00:22        1.16
  4SB17                JUNCTION     0.08     1.10   679.10     0  00:13        1.09
  4SB19_OF             JUNCTION     1.72     5.64   664.07     0  01:04        5.64
  4SB21                JUNCTION     5.81     6.66   673.26     0  02:43        6.65
  4SB22_OF             JUNCTION     7.49     9.13   674.17     0  01:03        9.12
  4SB23                JUNCTION     0.07     0.73   676.90     0  00:17        0.73
  4SB3                 JUNCTION     0.05     0.64   684.26     0  00:15        0.64
  4SB5_OF              JUNCTION     5.70     7.44   674.33     0  01:02        7.42
  4SB6                 JUNCTION     0.07     0.72   680.56     0  00:16        0.72
  4SB7                 JUNCTION     0.20     2.65   678.26     0  01:01        2.65
  4SB9                 JUNCTION     0.08     0.85   677.85     0  00:15        0.84
  50SB1                JUNCTION     4.26     5.70   678.17     0  00:45        5.69
  51SB1                JUNCTION     0.09     2.18   677.38     0  00:38        2.14
  52SB1_OF             JUNCTION     3.23     7.51   677.21     0  00:45        7.51
  53SB1_OF             JUNCTION     2.33     7.54   678.24     0  00:44        7.53
  5SB1                 JUNCTION     0.68     2.58   692.00     0  00:30        2.57
  5SB11                JUNCTION     0.88    11.33   686.33     0  00:32       11.32
  5SB14                JUNCTION     0.09     1.02   670.02     0  00:13        1.02
  5SB17                JUNCTION     0.09     0.94   669.04     0  00:17        0.94
  5SB21_OF             JUNCTION     9.49    11.17   674.17     0  01:03       11.17
  5SB23                JUNCTION     0.12     1.22   675.30     0  00:22        1.21
  5SB3                 JUNCTION     0.05     0.64   683.20     0  00:14        0.63
  5SB6                 JUNCTION     0.58     5.27   681.31     0  00:29        5.27
  5SB7_OF              JUNCTION     8.17     9.82   674.17     0  01:03        9.81
  5SB9_OF              JUNCTION     1.62     4.91   660.94     0  01:05        4.91
  6SB1                 JUNCTION     0.04     0.46   704.06     0  00:30        0.46
  6SB11                JUNCTION     0.68    11.06   690.56     0  00:30       11.06
  6SB14                JUNCTION     0.06     0.73   673.73     0  00:15        0.73
  6SB17                JUNCTION     0.28     2.09   668.29     0  00:30        2.09
  6SB3                 JUNCTION     0.05     0.65   680.18     0  00:12        0.65
  745                  JUNCTION     5.82     7.43   674.17     0  01:02        7.43
  747                  JUNCTION     1.40     5.31   664.68     0  01:04        5.30
  751                  JUNCTION     0.54     1.73   673.83     0  01:04        1.73
  754                  JUNCTION     0.36     6.39   686.39     0  00:22        6.37
  756                  JUNCTION     0.37     7.00   686.27     0  00:30        7.00
  757                  JUNCTION     0.49     7.25   689.53     0  00:23        7.22
  758                  JUNCTION     0.55     7.29   690.34     0  00:20        7.29
  7SB1                 JUNCTION     0.75     3.48   687.65     0  00:30        3.47
  7SB11                JUNCTION     0.40     6.91   691.51     0  00:29        6.91
  7SB14                JUNCTION     0.04     0.50   680.50     0  00:21        0.50
  7SB17                JUNCTION     0.08     0.86   669.06     0  00:14        0.86
  7SB3                 JUNCTION     0.54     4.92   679.27     0  00:40        4.92
  7SB6                 JUNCTION     0.32     6.89   685.89     0  00:27        6.87
  800                  JUNCTION     2.89     8.13   658.00     0  01:06        8.13
  802                  JUNCTION     4.69     6.78   652.18     0  01:08        6.78
  818                  JUNCTION     2.53     7.78   678.28     0  00:44        7.51
  822                  JUNCTION     3.77     6.90   675.97     0  00:46        6.89
  824                  JUNCTION     4.29     6.42   674.82     0  00:59        6.42
  8SB1                 JUNCTION     0.20     1.18   683.18     0  00:24        1.18
  8SB11                JUNCTION     0.40     5.07   692.12     0  00:23        5.06
  8SB14                JUNCTION     0.05     0.53   681.53     0  00:18        0.53
  8SB17                JUNCTION     0.07     0.84   671.14     0  00:15        0.84
  8SB3_OF              JUNCTION     2.89     7.50   677.58     0  00:44        7.39
  8SB6                 JUNCTION     0.30     6.46   684.46     0  00:29        6.46
  9SB1                 JUNCTION     1.02     2.42   683.13     0  00:23        2.40
  9SB11                JUNCTION     0.19     1.90   693.40     0  00:22        1.90
  9SB14                JUNCTION     0.15     1.50   669.50     0  00:24        1.50
  9SB17                JUNCTION     0.06     0.79   668.79     0  00:15        0.78
  O.15_UP              JUNCTION     6.02     7.67   651.67     0  01:08        7.66
  SB1018_OF            JUNCTION     1.55     5.77   659.04     0  01:06        5.75
  SB1216_OF            JUNCTION     2.56     6.48   654.28     0  01:07        6.46
  O.O_RM               OUTFALL     12.20    12.20   650.00     0  00:00       12.20
  1SB1                 STORAGE      0.98     4.01   708.46     0  01:13        4.01
  99                   STORAGE      3.58     6.03   688.03     0  00:40        6.01
  
  
  *******************
  Node Inflow Summary
  *******************
  
  -------------------------------------------------------------------------------------------------
                                  Maximum  Maximum                  Lateral       Total        Flow
                                  Lateral    Total  Time of Max      Inflow      Inflow     Balance
                                   Inflow   Inflow   Occurrence      Volume      Volume       Error
  Node                 Type           CFS      CFS  days hr:min    10^6 gal    10^6 gal     Percent
  -------------------------------------------------------------------------------------------------
  0.10_RM              JUNCTION      0.00  1310.67     0  01:09           0          77       5.600
  0.10_UP              JUNCTION    190.21  1313.55     0  01:08        4.85        78.2       1.617
  0.15_RM              JUNCTION      0.00  1248.99     0  01:08           0        73.8       0.590
  102                  JUNCTION   1499.50  1499.50     0  00:20        28.8        28.7       0.100
  1050                 JUNCTION      0.00   435.95     0  00:37           0        21.9       0.081
  10SB1                JUNCTION      0.00   197.86     0  00:26           0        12.7      -0.197
  10SB11               JUNCTION     19.04    37.71     0  00:12       0.357       0.702      -0.299
  10SB14               JUNCTION     16.74   115.43     0  00:23       0.486        2.82      -0.160
  10SB17               JUNCTION      9.34     9.34     0  00:21       0.267       0.267       2.941
  10SB6                JUNCTION     21.37   168.77     0  00:24       0.576        3.52      -0.705
  1118                 JUNCTION      0.00  2583.59     0  00:30           0        39.8      -0.411
  1119                 JUNCTION      0.00  2592.54     0  00:34           0        35.6       0.084
  1120                 JUNCTION      0.00  2862.48     0  00:29           0        30.6       0.204
  1121                 JUNCTION     36.00  1832.86     0  00:29       0.965        29.3       0.113
  1122                 JUNCTION      0.00  1169.46     0  00:28           0        29.3       0.118
  1123                 JUNCTION      0.00  1494.02     0  00:30           0        29.9       0.073
  1124                 JUNCTION      0.00  1874.88     0  00:30           0        30.8       0.027
  1125                 JUNCTION      0.00  1881.03     0  00:30           0        31.1       0.104
  1126                 JUNCTION      0.00  2020.76     0  00:36           0        30.2       0.264
  1127                 JUNCTION      0.00  1027.66     0  00:36           0        29.2       0.087
  1128                 JUNCTION      0.00   902.13     0  00:36           0          29      -0.023
  11SB1                JUNCTION     15.65    15.65     0  00:21       0.356       0.356      -0.826
  11SB11               JUNCTION     17.75    17.75     0  00:12       0.346       0.346       0.075
  11SB14_OF            JUNCTION     58.10  1251.82     0  01:06        1.54        74.7       0.633
  11SB17               JUNCTION     12.01    12.01     0  00:12       0.228       0.228       0.539
  11SB6                JUNCTION     16.27   157.43     0  00:18       0.372        3.01       0.648
  12SB1                JUNCTION     12.34    12.34     0  00:21       0.309       0.309      -0.481
  12SB11               JUNCTION     17.74    17.74     0  00:21       0.408       0.408       1.064
  12SB6                JUNCTION     24.55    24.55     0  00:12       0.323       0.322       0.468
  13SB1                JUNCTION     17.63    81.66     0  00:21       0.366        1.96      -0.127
  13SB11               JUNCTION     39.58   257.26     0  00:25       0.821        6.42      -0.012
  13SB17               JUNCTION      2.06    72.22     0  00:48       0.105        2.59      -0.281
  13SB6                JUNCTION     26.90    74.44     0  00:16        0.61         1.5       0.156
  14SB1                JUNCTION     16.28    52.06     0  00:21       0.482        1.29       0.349
  14SB11               JUNCTION     20.65   231.83     0  00:23       0.503        5.63       0.578
  14SB17               JUNCTION      7.24    71.00     0  00:36       0.194        2.25      -0.473
  14SB6                JUNCTION      5.05    34.65     0  00:15       0.166       0.734       0.356
  15SB1                JUNCTION     10.34   217.79     0  00:22       0.209        5.24       0.373
  15SB11               JUNCTION     32.03   235.35     0  00:15       0.756        5.24       2.330
  15SB17               JUNCTION      0.00    65.39     0  00:30           0        1.81       0.908
  15SB6                JUNCTION     30.30    30.30     0  00:15       0.566       0.566      -0.385
  16SB1                JUNCTION      0.00   238.00     0  00:24           0        5.84      -0.111
  16SB11               JUNCTION     52.12   204.61     0  00:15        1.23        4.49       0.001
  16SB17               JUNCTION      7.93     7.93     0  00:15       0.184       0.184       1.184
  16SB6                JUNCTION     21.81   115.32     0  00:17       0.428        2.31      -0.338
  17SB1                JUNCTION      0.00   295.03     0  00:31           0        16.3       0.005
  17SB11               JUNCTION    153.29   153.29     0  00:12        3.29        3.28       0.794
  17SB17               JUNCTION      8.94     8.94     0  00:21       0.315       0.315       1.984
  17SB6                JUNCTION     10.76    94.84     0  00:16       0.207        1.86      -1.263
  18SB1                JUNCTION      9.02   134.78     0  00:20       0.172        3.06      -0.125
  18SB17               JUNCTION      0.00    78.97     0  00:48           0        2.91       0.296
  18SB6                JUNCTION     10.14    85.21     0  00:15       0.215        1.65       0.184
  19SB1                JUNCTION     12.26    12.26     0  00:15       0.266       0.266      -0.540
  19SB17               JUNCTION      0.00   123.88     0  00:27           0        4.12      -0.149
  19SB6                JUNCTION     13.81    13.81     0  00:12       0.242       0.242       0.144
  1SB11_OF             JUNCTION      0.00   819.72     0  01:06           0        53.8      -0.022
  1SB14                JUNCTION     10.83    10.83     0  00:12       0.184       0.184      -0.817
  1SB17_OF             JUNCTION      0.00  1172.80     0  01:06           0        69.9       0.092
  1SB19                JUNCTION     16.15    16.15     0  00:21       0.375       0.375       0.045
  1SB20                JUNCTION     10.91    10.91     0  00:21       0.252       0.252      -1.383
  1SB21                JUNCTION     10.99    10.99     0  00:15       0.194       0.194     -20.865
  1SB22                JUNCTION     10.60    10.60     0  00:15       0.224       0.224     -13.176
  1SB23                JUNCTION     20.14    20.14     0  00:15       0.419       0.419      -0.669
  1SB3_MIL             JUNCTION     19.60    19.60     0  00:10        1.41        1.41      -0.081
  1SB4                 JUNCTION      8.27     8.27     0  00:12       0.122       0.122      -0.434
  1SB5                 JUNCTION     15.42    15.42     0  00:15       0.286       0.286      -1.016
  1SB6_OF              JUNCTION      0.00  1131.83     0  00:38           0        62.6       2.054
  1SB7                 JUNCTION     12.37    12.37     0  00:12       0.245       0.245      -0.450
  1SB9                 JUNCTION     18.25    18.25     0  00:15       0.412       0.411      -0.017
  20SB1                JUNCTION     21.36    35.06     0  00:15       0.427       0.894      -0.236
  20SB6                JUNCTION     11.19    11.19     0  00:12       0.177       0.177       0.056
  21SB1                JUNCTION     22.72    36.43     0  00:15       0.527       0.807      -0.457
  21SB6                JUNCTION     12.48    12.48     0  00:15       0.234       0.234      -0.033
  22SB1                JUNCTION     13.81    13.81     0  00:15        0.28        0.28      -0.186
  22SB6                JUNCTION     15.91    28.24     0  00:15       0.282       0.515      -0.063
  23SB1                JUNCTION     15.64    15.64     0  00:21       0.468       0.468       0.096
  23SB6                JUNCTION     20.96    49.12     0  00:15       0.371       0.887      -0.122
  24SB1                JUNCTION     14.04    14.04     0  00:12       0.196       0.196      -0.024
  24SB6                JUNCTION     25.79    53.56     0  00:15       0.493        1.02       0.035
  25SB1                JUNCTION     23.29    23.29     0  00:21       0.585       0.585      -0.103
  25SB6                JUNCTION     19.74    27.90     0  00:15       0.391       0.528       0.035
  26SB1                JUNCTION     11.53    25.47     0  00:12       0.197       0.392       0.012
  26SB6                JUNCTION      8.40     8.40     0  00:12       0.137       0.136      -0.171
  27SB1                JUNCTION     13.97    39.27     0  00:12       0.245       0.637      -0.018
  28SB1                JUNCTION     20.81    58.24     0  00:15       0.507        1.14      -0.071
  29SB1                JUNCTION      0.00    80.30     0  00:15           0        1.73       0.023
  2SB1                 JUNCTION      5.27     5.27     0  00:30       0.217       0.217       0.082
  2SB11                JUNCTION     79.78   418.56     0  00:36         1.8          12       1.228
  2SB14                JUNCTION     32.21    42.67     0  00:15       0.705       0.889      -0.245
  2SB17                JUNCTION     21.06    57.21     0  00:20       0.509        1.21      -0.046
  2SB19                JUNCTION      3.36     3.36     0  00:30       0.113       0.113       0.025
  2SB20_OF             JUNCTION     18.61   908.03     0  01:00        0.33        56.1       4.426
  2SB21                JUNCTION      6.67    87.98     0  01:10       0.207        2.87      21.609
  2SB22                JUNCTION      5.37     9.65     0  01:29       0.196       0.365      27.471
  2SB23                JUNCTION     17.41    17.41     0  00:12       0.318       0.317      -0.921
  2SB2_MIL             JUNCTION      0.00  2055.42     0  00:43           0          35       0.429
  2SB3                 JUNCTION      8.37    53.38     0  00:15       0.132        1.95       0.272
  2SB4                 JUNCTION      5.08    13.20     0  00:12      0.0841       0.207       0.337
  2SB5                 JUNCTION      8.67     8.67     0  00:15       0.185       0.185      -0.777
  2SB6                 JUNCTION      0.00   286.66     0  00:30           0        7.04       1.340
  2SB7                 JUNCTION      4.54     4.54     0  00:15      0.0815      0.0814      -0.718
  2SB9                 JUNCTION      0.00    51.21     0  00:15           0        1.28      -0.315
  30SB1                JUNCTION      0.00   112.82     0  00:18           0        2.62       0.149
  31SB1                JUNCTION     21.95    21.95     0  00:21       0.621       0.621       0.422
  32SB1                JUNCTION      9.30   110.50     0  00:34       0.235         2.5       0.392
  33SB1                JUNCTION     11.32   144.79     0  00:37       0.227        4.29      -2.531
  34SB1                JUNCTION     18.64    18.64     0  00:21       0.471       0.471       0.536
  35SB1                JUNCTION     14.94    14.94     0  00:15       0.293       0.293      -1.310
  36SB1                JUNCTION      0.00    44.14     0  00:15           0        1.11       0.618
  37SB1                JUNCTION      9.54    35.14     0  00:17       0.172       0.815       0.206
  38SB1                JUNCTION      7.22    27.15     0  00:21       0.185        0.64      -0.386
  39SB1                JUNCTION     20.07    20.07     0  00:15       0.455       0.455      -0.160
  3SB1                 JUNCTION     12.90    18.18     0  00:21       0.328       0.545      -0.022
  3SB14                JUNCTION     13.73    49.61     0  00:21        0.28        1.17       0.477
  3SB17                JUNCTION     16.24    38.29     0  00:15       0.345       0.705       0.811
  3SB19                JUNCTION      0.00    19.10     0  00:21           0       0.487       0.080
  3SB21                JUNCTION      5.45   117.44     0  01:04       0.159        4.47       4.902
  3SB22                JUNCTION      0.00    66.16     0  01:15           0        2.03      54.679
  3SB23                JUNCTION     16.80    47.53     0  00:15       0.307       0.843       0.385
  3SB3                 JUNCTION      9.67    25.72     0  00:13        0.13       0.405       0.406
  3SB5                 JUNCTION      0.00    24.39     0  00:15           0       0.487       1.159
  3SB6                 JUNCTION     10.81    21.85     0  00:14       0.213       0.465       0.530
  3SB7                 JUNCTION      4.54    22.43     0  00:14       0.093       0.421      -0.167
  3SB9                 JUNCTION     11.10    34.58     0  00:15        0.26       0.871       0.277
  40SB1                JUNCTION     32.25   318.24     0  00:30         0.7          17      -0.562
  41SB1                JUNCTION     12.56   465.71     0  00:37       0.455          22       0.358
  42SB1                JUNCTION      0.00   280.41     0  00:32           0        22.2       0.859
  43SB1                JUNCTION     13.39    13.39     0  00:15       0.252       0.252     -19.650
  44SB1                JUNCTION      9.73     9.73     0  00:21       0.275       0.275      -0.039
  45SB1                JUNCTION     11.51    21.77     0  00:17       0.247       0.522       0.076
  46SB1                JUNCTION     14.29   100.34     0  02:40        0.31        22.8       0.016
  47SB1                JUNCTION      0.00   100.38     0  02:39           0        22.8       0.091
  48SB1_OF             JUNCTION      0.00   817.16     0  00:45           0          32       0.250
  49SB1                JUNCTION     21.78    21.78     0  00:12       0.529       0.528       1.839
  4SB1                 JUNCTION     15.77    33.38     0  00:21       0.459           1      -0.052
  4SB11                JUNCTION     32.52   374.16     0  00:32       0.726        10.1      -0.407
  4SB14                JUNCTION     15.57    61.03     0  00:21        0.26        1.43      -0.101
  4SB17                JUNCTION     20.76    20.76     0  00:12       0.356       0.356      -1.415
  4SB19_OF             JUNCTION      7.47   794.00     0  01:04       0.108        51.7       0.025
  4SB21                JUNCTION      0.00   155.71     0  01:05           0        5.34      35.481
  4SB22_OF             JUNCTION      0.00   981.01     0  00:54           0        61.6       2.549
  4SB23                JUNCTION      9.99     9.99     0  00:15       0.216       0.216      -0.407
  4SB3                 JUNCTION      7.81     7.81     0  00:15       0.145       0.145      -1.307
  4SB5_OF              JUNCTION     11.61   921.72     0  00:45        0.15        56.3       0.338
  4SB6                 JUNCTION     10.94    10.94     0  00:15       0.248       0.248      -0.219
  4SB7                 JUNCTION      0.00    23.65     0  00:13           0       0.422       0.657
  4SB9                 JUNCTION     24.19    24.19     0  00:12        0.61        0.61      -0.269
  50SB1                JUNCTION      0.00    20.16     0  00:21           0       0.519       1.438
  51SB1                JUNCTION      5.76     5.76     0  00:12      0.0715      0.0713       0.525
  52SB1_OF             JUNCTION      0.00   835.67     0  00:44           0        31.8       0.141
  53SB1_OF             JUNCTION      0.00   967.78     0  00:36           0        29.6       0.082
  5SB1                 JUNCTION     30.55   115.52     0  00:30       0.696        10.8       0.015
  5SB11                JUNCTION     28.33   277.35     0  00:27       0.567        6.98      -0.264
  5SB14                JUNCTION      4.48    20.48     0  00:21       0.131       0.488      -0.246
  5SB17                JUNCTION     18.47    18.47     0  00:15       0.407       0.407      -1.182
  5SB21_OF             JUNCTION      0.00   958.15     0  00:59           0        59.3       6.425
  5SB23                JUNCTION      0.00    58.81     0  00:21           0        1.26       0.343
  5SB3                 JUNCTION      7.58     7.58     0  00:12       0.126       0.126      -1.681
  5SB6                 JUNCTION     13.02   267.70     0  00:30       0.244         6.5      -1.085
  5SB7_OF              JUNCTION     17.39   953.12     0  00:59       0.263        60.7       3.649
  5SB9_OF              JUNCTION      0.00   815.80     0  01:04           0        52.9       0.069
  6SB1                 JUNCTION      9.41     9.41     0  00:21       0.273       0.272      -0.015
  6SB11                JUNCTION     21.44    95.94     0  00:29       0.605         2.4       0.253
  6SB14                JUNCTION     10.78    16.64     0  00:15       0.181       0.357      -0.034
  6SB17                JUNCTION     12.73    69.00     0  00:15       0.251        1.41       0.889
  6SB3                 JUNCTION      9.09     9.09     0  00:12       0.163       0.162      -2.195
  745                  JUNCTION      0.00   913.65     0  00:44           0        56.1       0.942
  747                  JUNCTION      0.00   784.48     0  01:04           0        51.1       0.005
  751                  JUNCTION      0.00   115.17     0  01:04           0        3.76      -0.535
  754                  JUNCTION      0.00    72.86     0  00:20           0        1.49       0.331
  756                  JUNCTION      0.00   183.19     0  00:27           0        4.27      -0.008
  757                  JUNCTION      0.00   151.18     0  00:21           0        2.96       0.738
  758                  JUNCTION      0.00   150.09     0  00:19           0        2.99       0.865
  7SB1                 JUNCTION     19.06   140.48     0  00:30       0.448        11.5       0.008
  7SB11                JUNCTION     16.05    81.65     0  00:25       0.284        1.81       0.445
  7SB14                JUNCTION      6.68     6.68     0  00:21       0.176       0.176       0.032
  7SB17                JUNCTION     16.37    16.37     0  00:15       0.353       0.352      -0.711
  7SB3                 JUNCTION      0.00    41.40     0  00:31           0        2.11       0.206
  7SB6                 JUNCTION      8.55    80.43     0  00:22       0.184        1.67      -0.245
  800                  JUNCTION      0.00  1080.65     0  01:05           0        65.7      -0.103
  802                  JUNCTION      0.00  1249.76     0  01:07           0        74.2       0.226
  818                  JUNCTION      0.00   932.76     0  00:36           0        29.6       0.083
  822                  JUNCTION      0.00   874.53     0  00:45           0        54.7       0.146
  824                  JUNCTION      0.00   869.02     0  00:46           0        54.6       0.325
  8SB1                 JUNCTION     13.55    13.55     0  00:15       0.404       0.404      -1.352
  8SB11                JUNCTION     14.41    68.71     0  00:21       0.187        1.54       0.816
  8SB14                JUNCTION      7.96     7.96     0  00:12       0.124       0.124       4.765
  8SB17                JUNCTION     17.35    17.35     0  00:15       0.393       0.392      -0.811
  8SB3_OF              JUNCTION      9.63   874.86     0  00:37       0.178        31.8       0.105
  8SB6                 JUNCTION     11.27   258.14     0  00:29       0.302        6.25       0.000
  9SB1                 JUNCTION     15.86   164.60     0  00:30       0.462        12.4       0.080
  9SB11                JUNCTION     10.70    50.16     0  00:15       0.244       0.948       0.271
  9SB14                JUNCTION     15.72    94.88     0  00:21         0.3        2.22       0.124
  9SB17                JUNCTION     11.41    11.41     0  00:12       0.235       0.234       1.207
  O.15_UP              JUNCTION      0.00  1249.21     0  01:08           0          74       0.281
  SB1018_OF            JUNCTION     73.25   822.85     0  01:05       0.952        53.9       0.058
  SB1216_OF            JUNCTION     42.67  1177.99     0  01:06       0.708        70.5       0.228
  O.O_RM               OUTFALL       0.00  1308.79     0  01:10           0        72.9       0.000
  1SB1                 STORAGE     633.99   633.99     0  00:15        9.42        9.41       0.009
  99                   STORAGE       0.00   461.05     0  00:20           0        4.87      -0.083
  
  
  **********************
  Node Surcharge Summary
  **********************
  
  No nodes were surcharged.
  
  
  *********************
  Node Flooding Summary
  *********************
  
  No nodes were flooded.
  
  
  **********************
  Storage Volume Summary
  **********************
  
  --------------------------------------------------------------------------------------------------
                         Average     Avg  Evap Exfil       Maximum     Max    Time of Max    Maximum
                          Volume    Pcnt  Pcnt  Pcnt        Volume    Pcnt     Occurrence    Outflow
  Storage Unit          1000 ft3    Full  Loss  Loss      1000 ft3    Full    days hr:min        CFS
  --------------------------------------------------------------------------------------------------
  1SB1                   218.812       1     0     0       952.450       6       0  01:13      63.97
  99                     324.729      36     0     0       631.237      70       0  00:40      10.98
  
  
  ***********************
  Outfall Loading Summary
  ***********************
  
  -----------------------------------------------------------
                         Flow       Avg       Max       Total
                         Freq      Flow      Flow      Volume
  Outfall Node           Pcnt       CFS       CFS    10^6 gal
  -----------------------------------------------------------
  O.O_RM                98.06    124.73   1308.79      72.904
  -----------------------------------------------------------
  System                98.06    124.73   1308.79      72.904
  
  
  ********************
  Link Flow Summary
  ********************
  
  -----------------------------------------------------------------------------
                                 Maximum  Time of Max   Maximum    Max/    Max/
                                  |Flow|   Occurrence   |Veloc|    Full    Full
  Link                 Type          CFS  days hr:min    ft/sec    Flow   Depth
  -----------------------------------------------------------------------------
  583                  CHANNEL     11.98     0  00:18      3.32    0.00    0.06
  591                  CHANNEL      8.29     0  00:12      1.99    0.00    0.07
  592                  CHANNEL     27.80     0  00:15      3.73    0.00    0.09
  593                  CHANNEL     53.23     0  00:15      6.90    0.00    0.09
  594                  CHANNEL     47.93     0  00:16      3.49    0.00    0.13
  595                  CHANNEL     28.17     0  00:15      2.87    0.00    0.10
  596                  CHANNEL     12.45     0  00:15      5.59    0.00    0.06
  597                  CHANNEL     30.02     0  00:15      5.44    0.01    0.18
  598                  CHANNEL     33.27     0  00:20      4.26    0.01    0.18
  601                  CHANNEL     28.63     0  00:12      4.15    0.01    0.21
  602                  CHANNEL     72.86     0  00:20      5.81    0.00    0.12
  604                  CHANNEL    269.96     0  00:30     10.24    0.06    0.48
  606                  CHANNEL     11.49     0  00:17      2.36    0.00    0.08
  607                  CHANNEL     20.88     0  00:19      3.44    0.00    0.15
  608                  CHANNEL     23.81     0  00:15     35.54    0.00    0.10
  609                  CHANNEL     33.53     0  00:21      2.85    0.00    0.11
  610                  CONDUIT     51.05     0  00:17      5.34    0.05    0.57
  612                  CHANNEL     12.67     0  00:15      2.89    0.00    0.08
  613                  CHANNEL     23.65     0  00:13      3.04    0.00    0.17
  615                  CHANNEL      5.44     0  00:14      1.53    0.00    0.07
  616                  CHANNEL     15.92     0  00:21      3.06    0.00    0.07
  618                  CHANNEL      3.31     0  00:30      2.51    0.00    0.04
  619                  CHANNEL     10.85     0  00:21      4.55    0.00    0.09
  620                  CHANNEL     10.88     0  00:15      4.58    0.00    0.28
  622                  CHANNEL    117.51     0  01:14      3.50    0.00    0.44
  623                  CHANNEL     85.01     0  01:10      2.43    0.00    0.51
  624                  CHANNEL     10.44     0  00:16      4.13    0.00    0.20
  626                  CHANNEL      8.09     0  02:07      3.10    0.00    0.32
  627                  CHANNEL     19.84     0  00:16      4.90    0.00    0.09
  628                  CHANNEL     58.56     0  00:22      6.03    0.00    0.15
  629                  CHANNEL     20.08     0  00:15      2.49    0.00    0.11
  630                  CHANNEL     39.25     0  00:21      2.74    0.00    0.12
  631                  CHANNEL     11.79     0  00:18      1.84    0.00    0.10
  632                  CHANNEL     15.84     0  00:15      4.14    0.00    0.08
  633                  CHANNEL     23.11     0  00:18      3.84    0.00    0.17
  634                  CHANNEL      8.58     0  00:16      3.63    0.00    0.08
  712                  CHANNEL    792.61     0  01:05      7.46    0.02    0.24
  713                  CHANNEL    815.68     0  01:05      6.33    0.02    0.21
  714                  CHANNEL    819.72     0  01:06      4.04    0.02    0.26
  748                  CHANNEL    784.37     0  01:04      5.35    0.03    0.28
  750                  CHANNEL     63.14     0  01:15      2.32    0.00    0.43
  753                  CHANNEL    111.08     0  01:04      2.09    0.00    0.20
  762                  CHANNEL     10.47     0  00:15      2.84    0.00    0.07
  635                  CHANNEL      8.14     0  00:12      3.12    0.00    0.07
  636                  CHANNEL     12.66     0  00:15      2.41    0.00    0.07
  637                  CHANNEL      8.92     0  00:12      2.81    0.00    0.14
  641                  CHANNEL      8.73     0  00:14      2.17    0.00    0.08
  642                  CHANNEL     26.25     0  00:15      2.42    0.00    0.18
  643                  CHANNEL      8.71     0  00:15      2.09    0.00    0.08
  644                  CONDUIT     63.97     0  01:13      9.45    1.09    0.93
  647                  CHANNEL    183.87     0  00:28      2.73    0.01    0.21
  650                  CHANNEL    317.86     0  00:32      2.08    0.04    0.26
  655                  CONDUIT      5.65     0  00:30      2.40    0.11    0.31
  656                  CONDUIT     17.69     0  00:21      4.44    0.38    0.43
  657                  CONDUIT     33.27     0  00:21      6.85    0.40    0.58
  658                  CHANNEL     14.21     0  00:19      2.35    0.00    0.09
  659                  CHANNEL     77.24     0  00:24      2.54    0.00    0.16
  660                  CHANNEL    216.34     0  00:24      3.87    0.01    0.21
  662                  CHANNEL     13.74     0  00:15      3.54    0.00    0.08
  663                  CHANNEL     36.31     0  00:18      3.67    0.00    0.10
  664                  CHANNEL     51.44     0  00:22      4.51    0.00    0.11
  665                  CHANNEL     15.48     0  00:21      3.16    0.00    0.07
  666                  CHANNEL     34.80     0  00:21      4.59    0.00    0.13
  667                  CHANNEL     13.96     0  00:12     23.42    0.00    0.06
  668                  CHANNEL     25.36     0  00:12      4.39    0.00    0.08
  669                  CHANNEL     39.02     0  00:12      7.12    0.00    0.10
  670                  CHANNEL     58.17     0  00:15      5.92    0.00    0.11
  671                  CHANNEL     78.21     0  00:17      4.47    0.00    0.15
  672                  CHANNEL    112.60     0  00:20      4.37    0.00    0.16
  673                  CHANNEL    132.56     0  00:21      4.68    0.00    0.18
  674                  CHANNEL     23.17     0  00:21      4.38    0.00    0.10
  675                  CHANNEL     13.86     0  00:14      2.41    0.00    0.11
  676                  CONDUIT      8.73     0  00:30      3.13    0.00    0.09
  677                  CHANNEL     14.07     0  00:13      1.82    0.00    0.15
  678                  CHANNEL     17.33     0  00:25      3.30    0.00    0.15
  679                  CHANNEL     21.72     0  00:22      3.73    0.00    0.14
  680                  CHANNEL     20.09     0  00:16      3.57    0.00    0.08
  681                  CHANNEL     26.83     0  00:21      3.33    0.00    0.13
  682                  CHANNEL     28.37     0  00:19      2.36    0.00    0.24
  684                  CHANNEL    141.58     0  00:39      1.19    0.06    0.74
  685                  CHANNEL     17.23     0  00:15      3.11    0.00    0.21
  686                  CHANNEL    103.49     0  00:37      3.30    0.01    0.17
  687                  CHANNEL     18.43     0  00:21      4.60    0.00    0.06
  688                  CHANNEL      0.00     0  00:00      0.00    0.00    0.00
  690                  CHANNEL      0.00     0  00:00      0.00    0.00    0.03
  694                  CHANNEL     13.28     0  00:15      5.00    0.00    0.23
  695                  CHANNEL     10.86     0  00:21      2.05    0.00    0.08
  696                  CHANNEL     20.05     0  00:22      2.92    0.00    0.09
  702                  CHANNEL    829.61     0  00:37      4.47    0.11    0.42
  703                  CHANNEL    834.24     0  00:44      4.56    0.09    0.42
  704                  CHANNEL    812.15     0  00:45      5.25    0.10    0.38
  705                  CHANNEL    869.02     0  00:46      5.09    0.08    0.32
  825                  CHANNEL    871.59     0  00:45      7.35    0.03    0.32
  826                  CHANNEL    103.17     0  00:36      3.66    0.00    0.17
  536                  CHANNEL     22.34     0  00:17      4.28    0.00    0.12
  537                  CHANNEL     48.95     0  00:30      2.48    0.00    0.14
  543                  CHANNEL     17.23     0  00:15      9.09    0.00    0.12
  544                  CHANNEL     11.12     0  00:14      3.04    0.00    0.07
  548                  CHANNEL     18.33     0  00:14      4.94    0.00    0.12
  549                  CHANNEL      7.73     0  00:16      2.82    0.00    0.07
  551                  CHANNEL     22.12     0  00:15      2.54    0.00    0.10
  552                  CHANNEL     36.27     0  00:19      3.79    0.00    0.10
  557                  CHANNEL     10.65     0  00:13      1.93    0.00    0.10
  558                  CHANNEL     37.31     0  00:22      2.46    0.00    0.13
  559                  CHANNEL     48.66     0  00:23      4.92    0.00    0.10
  560                  CHANNEL     60.67     0  00:22      5.27    0.00    0.11
  561                  CHANNEL     92.63     0  00:24      6.42    0.00    0.12
  563                  CHANNEL      6.83     0  00:18      3.63    0.00    0.05
  564                  CHANNEL      6.63     0  00:21      2.82    0.00    0.05
  565                  CHANNEL     16.54     0  00:15      3.43    0.00    0.07
  566                  CHANNEL     21.00     0  00:16      2.36    0.00    0.10
  571                  CHANNEL     19.14     0  00:14      7.53    0.00    0.09
  572                  CHANNEL     39.64     0  00:15      3.08    0.00    0.13
  573                  CHANNEL     41.18     0  00:22      2.63    0.00    0.13
  582                  CHANNEL     17.54     0  00:21      5.68    0.00    0.07
  717                  CHANNEL   1176.47     0  01:07      4.36    0.22    0.49
  801                  CHANNEL   1080.58     0  01:06      7.28    0.08    0.34
  0.06_NAT             CHANNEL   1308.79     0  01:10      0.72    0.03    0.35
  1087                 CHANNEL    114.70     0  01:04      6.19    0.00    0.21
  1051                 CHANNEL    435.95     0  00:37      1.96    0.01    0.29
  817pipe              CONDUIT     35.13     0  00:08      7.56    1.08    1.00
  817chan              CHANNEL     50.39     0  00:16      3.73    0.00    0.06
  816pipe              CONDUIT     22.43     0  00:11      7.14    1.06    1.00
  816chan              CHANNEL     72.17     0  00:17      3.73    0.00    0.07
  815pipe1             CONDUIT     11.70     0  00:12      3.72    0.95    1.00
  815chan              CHANNEL     96.11     0  00:18      2.68    0.00    0.10
  815pipe2             CONDUIT     12.52     0  00:12      3.99    0.95    1.00
  814pipe              CONDUIT     21.73     0  00:09      6.92    2.28    1.00
  814chan              CHANNEL    140.46     0  00:19      3.06    0.01    0.11
  810pipe1             CONDUIT     93.95     0  00:47      7.48    1.55    1.00
  810chan              CHANNEL     75.22     0  00:30      3.16    0.00    0.08
  810pipe2             CONDUIT     40.74     0  00:47      5.76    1.55    1.00
  789pipe              CONDUIT    255.22     0  00:30     20.31    1.27    1.00
  789of                CONDUIT      2.83     0  00:29      2.43    0.00    0.06
  803pipe              CONDUIT     71.06     0  00:17     10.09    2.07    1.00
  803chan              CHANNEL     28.96     0  00:27      3.27    0.00    0.10
  805pipe1             CONDUIT     76.87     0  00:33     12.05    0.95    1.00
  805pipe2             CONDUIT    204.87     0  00:32     14.02    1.05    1.00
  805of                CONDUIT      1.72     0  00:59      0.16    0.00    0.29
  830pipe              CONDUIT     10.96     0  00:16     10.69    1.04    0.95
  830of                CONDUIT      7.26     0  00:15      7.54    0.00    0.04
  831pipe              CONDUIT     13.10     0  00:14     11.82    1.04    1.00
  831of                CONDUIT      0.00     0  00:00      0.00    0.00    0.50
  827pipe              CONDUIT     19.10     0  00:21     11.47    0.54    0.70
  827of                CONDUIT      0.00     0  00:00      0.00    0.00    0.20
  826pipe              CONDUIT     19.05     0  00:20      8.82    1.10    1.00
  826of                CONDUIT     35.49     0  01:03      3.28    0.02    0.28
  825pipe              CONDUIT      5.56     0  00:17      7.60    0.48    1.00
  825of                CONDUIT      2.82     0  01:03      0.68    0.00    0.13
  51OVRFLW             CHANNEL      0.00     0  00:00      0.00    0.00    0.00
  51_7x10_1            CONDUIT    456.82     0  00:44     11.09    1.21    1.00
  51_7x10_2            CONDUIT    456.82     0  00:44     11.09    1.21    1.00
  707_modify           CHANNEL    981.01     0  00:54    >50.00    0.01    0.36
  708_modify           CHANNEL    941.00     0  00:59      3.26    0.01    0.38
  709_modify           CHANNEL    958.15     0  00:59      9.29    0.01    0.42
  710_modify           CHANNEL    903.51     0  01:02      1.89    0.01    0.46
  47PIPE               CONDUIT      4.61     0  00:44      6.60    3.47    1.00
  47OVRFLW             CHANNEL    780.60     0  01:04      3.01    0.03    0.09
  746_modify           CHANNEL    874.95     0  00:38      2.99    0.01    0.33
  804pipe              CONDUIT     33.75     0  00:12      6.88    1.81    1.00
  804chan              CHANNEL     57.35     0  00:23      3.39    0.00    0.15
  813pipe              CONDUIT     37.74     0  00:12      7.69    2.18    1.00
  813chan              CHANNEL    132.62     0  00:21      3.19    0.01    0.11
  812pipe              CONDUIT     46.99     0  01:15      6.65    1.67    1.00
  812chan              CHANNEL    118.99     0  00:24      3.05    0.01    0.11
  811pipe              CONDUIT     77.23     0  01:00      8.14    1.82    1.00
  811chan              CHANNEL    108.23     0  00:28      3.06    0.01    0.10
  838of                CHANNEL     24.06     0  00:40      4.10    0.00    0.10
  838pip               CONDUIT     25.58     0  00:19      8.19    1.47    1.00
  839chan              CHANNEL     11.24     0  00:37      0.67    0.00    0.15
  839pipe              CONDUIT     16.39     0  00:06      5.91    0.94    1.00
  838chan              CHANNEL     18.50     0  00:36      4.03    0.00    0.07
  838pipe              CONDUIT     20.85     0  02:39      6.64    1.20    1.00
  36inch_1             CONDUIT     40.30     0  00:22      6.13    1.00    0.93
  54inch_1             CONDUIT     77.23     0  00:30      6.80    0.65    0.67
  36inch_2             CONDUIT     42.90     0  00:27      6.51    1.17    0.90
  54inch_2             CONDUIT     95.16     0  00:30      8.90    0.88    0.64
  848pipe              CONDUIT     77.56     0  01:17      8.15    1.62    1.00
  848chan              CONDUIT     19.11     0  00:36      3.96    0.02    0.15
  849_1                CONDUIT    147.15     0  00:31      8.44    1.58    0.83
  849_2                CONDUIT    147.15     0  00:31      8.44    1.58    0.83
  849_trap             CONDUIT      0.73     0  00:31      1.06    0.00    0.03
  853pipe              CONDUIT     11.59     0  00:09      2.48    1.17    1.00
  853of                CHANNEL     11.19     0  00:21      0.77    0.01    0.16
  854of                CHANNEL     22.25     0  00:27      1.75    0.01    0.17
  861_1                CONDUIT    105.53     0  00:27      8.40    2.77    1.00
  861_2                CONDUIT    105.53     0  00:27      8.40    2.77    1.00
  861_trap             CONDUIT      9.98     0  00:30      3.25    0.01    0.10
  883culv              CONDUIT     19.90     0  00:26      6.38    1.20    1.00
  883of                CHANNEL      2.49     0  00:59      1.44    0.00    0.12
  889pipe              CONDUIT      5.73     0  00:12      6.92    0.74    1.00
  889chan              CHANNEL      0.00     0  00:00      0.00    0.00    0.14
  691pipe              CONDUIT    100.64     0  02:58      5.74    0.87    1.00
  691chan              CHANNEL     10.80     0  00:49      1.55    0.00    0.09
  892pipe              CONDUIT     99.70     0  03:06      8.03    1.56    1.00
  892chan              CHANNEL      0.00     0  00:00      0.00    0.00    0.00
  893pipe              CONDUIT    100.38     0  02:39      6.19    0.87    1.00
  893chan              CHANNEL      0.00     0  00:00      0.00    0.00    0.03
  55_OVRFLW            CHANNEL      0.00     0  00:00      0.00    0.00    0.02
  55_5x12_1            CONDUIT    466.38     0  00:36      7.77    0.93    1.00
  55_5x12_2            CONDUIT    466.38     0  00:36      7.77    0.93    1.00
  53_#7TRP             CONDUIT    818.39     0  00:45      3.10    0.32    0.35
  708pipe              CONDUIT     48.74     0  00:16      6.89    1.38    1.00
  708chan              CHANNEL     37.07     0  00:42      1.63    0.00    0.08
  706pipe              CONDUIT     58.19     0  01:11      6.08    1.34    1.00
  706chan              CHANNEL     13.51     0  00:49      1.44    0.00    0.05
  704pipe              CONDUIT     72.33     0  00:49      7.52    1.41    1.00
  704chan              CHANNEL      0.00     0  00:00      0.00    0.00    0.00
  702pipe              CONDUIT     79.16     0  00:49      8.23    1.54    1.00
  702chan              CHANNEL      0.00     0  00:00      0.00    0.00    0.00
  700pipe              CONDUIT    123.52     0  00:27      9.83    2.92    1.00
  700chan              CHANNEL      0.00     0  00:00      0.00    0.00    0.00
  707pipe              CONDUIT      6.72     0  00:13      5.52    1.18    1.00
  707chan              CHANNEL      3.38     0  00:31      1.78    0.00    0.04
  705pipe              CONDUIT     12.00     0  00:14      6.89    1.67    1.00
  705chan              CHANNEL      0.00     0  00:00      0.00    0.00    0.00
  750p                 CONDUIT      6.87     0  00:24      5.67    1.55    1.00
  750c                 CONDUIT      1.58     0  00:30      1.44    0.00    0.06
  701pipe              CONDUIT     16.48     0  00:58      6.97    1.20    1.00
  701chan              CHANNEL     37.58     0  00:24      3.45    0.00    0.06
  740pipe              CONDUIT     54.83     0  00:13      7.79    1.27    1.00
  740chan              CHANNEL     59.71     0  00:27      3.39    0.00    0.07
  768pipe              CONDUIT    193.75     0  00:50     12.31    1.35    1.00
  768chan              CHANNEL    217.51     0  00:38      5.08    0.01    0.11
  770pipe              CONDUIT    103.68     0  01:35      8.25    1.23    1.00
  770chan              CHANNEL    189.31     0  00:33      3.54    0.01    0.13
  769pipe              CONDUIT    149.04     0  01:27      9.37    1.31    1.00
  769chan              CHANNEL    231.60     0  00:36      4.66    0.01    0.12
  782pipe              CONDUIT     24.50     0  00:14      6.31    1.59    1.00
  782chan              CHANNEL     60.77     0  00:25      1.79    0.01    0.10
  781pipe              CONDUIT     47.40     0  00:14      7.61    0.78    1.00
  781chan              CHANNEL     49.24     0  00:29      2.10    0.00    0.08
  780pipe              CONDUIT     57.25     0  00:25      8.10    1.24    1.00
  780chan              CHANNEL     38.26     0  00:30      1.66    0.00    0.09
  775pipe              CONDUIT     76.74     0  00:07      7.98    1.58    1.00
  775chan              CHANNEL    104.50     0  00:13      3.20    0.01    0.10
  774pipe              CONDUIT     83.68     0  00:08      8.70    1.71    1.00
  774chan              CHANNEL    144.87     0  00:16      3.88    0.01    0.12
  773pipe              CONDUIT     91.06     0  00:08      9.51    1.77    1.00
  773chan              CHANNEL    160.72     0  00:23      3.14    0.01    0.12
  772pipe              CONDUIT     81.02     0  00:12      8.42    1.31    1.00
  772chan              CHANNEL    164.71     0  00:25      4.12    0.01    0.11
  771pipe              CONDUIT     98.44     0  00:10      9.17    1.15    1.00
  771chan              CHANNEL    168.96     0  00:27      3.94    0.01    0.12
  DEANPIPE1            CONDUIT    410.29     0  01:07      8.16    0.99    1.00
  DEANPIPE2            CONDUIT    410.29     0  01:07      8.16    0.99    1.00
  DEANOVER             CHANNEL      0.00     0  00:00      0.00    0.00    0.00
  TEUT_OVF             CHANNEL      0.00     0  00:00      0.00    0.00    0.00
  TEUTPIPE1            CONDUIT   1171.04     0  01:06      6.06    0.67    0.72
  GBPIPE               CONDUIT   1249.76     0  01:07      5.58    1.14    0.87
  GB_OVER              CHANNEL      0.00     0  00:00      0.00    0.00    0.00
  .21NAT               CHANNEL   1249.21     0  01:08      4.16    0.14    0.56
  DEERWPIPE            CONDUIT   1248.99     0  01:08     13.24    2.79    1.00
[...]
  572                     1.00   0.00  0.00  0.00  1.00  0.00  0.00  0.00  0.92  0.00
  573                     1.00   0.00  0.00  0.00  0.00  0.00  0.00  1.00  0.00  0.00
  582                     1.00   0.00  0.00  0.00  0.05  0.01  0.00  0.94  0.05  0.00
  717                     1.00   0.00  0.00  0.00  1.00  0.00  0.00  0.00  0.00  0.00
  801                     1.00   0.00  0.00  0.00  1.00  0.00  0.00  0.00  0.00  0.00
  0.06_NAT                1.00   0.00  0.00  0.00  1.00  0.00  0.00  0.00  0.00  0.00
  1087                    1.00   0.00  0.00  0.00  0.98  0.02  0.00  0.00  0.08  0.00
  1051                    1.00   0.00  0.00  0.00  1.00  0.00  0.00  0.00  0.00  0.00
  817pipe                 1.00   0.00  0.00  0.00  0.94  0.06  0.00  0.00  0.16  0.00
  817chan                 1.00   0.94  0.02  0.00  0.03  0.01  0.00  0.00  0.99  0.00
  816pipe                 1.00   0.00  0.00  0.00  0.56  0.44  0.00  0.00  0.13  0.00
  816chan                 1.00   0.94  0.01  0.00  0.05  0.01  0.00  0.00  0.99  0.00
  815pipe1                1.00   0.00  0.00  0.00  1.00  0.00  0.00  0.00  0.19  0.00
  815chan                 1.00   0.93  0.01  0.00  0.06  0.00  0.00  0.00  0.96  0.00
  815pipe2                1.00   0.00  0.00  0.00  1.00  0.00  0.00  0.00  0.74  0.00
  814pipe                 1.00   0.00  0.00  0.00  1.00  0.00  0.00  0.00  0.00  0.00
  814chan                 1.00   0.93  0.00  0.00  0.05  0.00  0.00  0.02  0.00  0.00
  810pipe1                1.00   0.00  0.00  0.00  1.00  0.00  0.00  0.00  0.00  0.00
  810chan                 1.00   0.98  0.00  0.00  0.00  0.00  0.00  0.02  0.00  0.00
  810pipe2                1.00   0.00  0.00  0.00  1.00  0.00  0.00  0.00  0.00  0.00
  789pipe                 1.00   0.00  0.00  0.00  0.97  0.03  0.00  0.00  0.98  0.00
  789of                   1.00   0.99  0.00  0.00  0.00  0.00  0.00  0.01  0.00  0.00
  803pipe                 1.00   0.00  0.00  0.00  1.00  0.00  0.00  0.00  0.02  0.00
  803chan                 1.00   0.98  0.00  0.00  0.00  0.00  0.00  0.02  0.00  0.00
  805pipe1                1.00   0.00  0.00  0.00  0.98  0.02  0.00  0.00  0.02  0.00
  805pipe2                1.00   0.00  0.00  0.00  0.98  0.00  0.00  0.02  0.00  0.00
  805of                   1.00   0.03  0.96  0.00  0.02  0.00  0.00  0.00  0.96  0.00
  830pipe                 1.00   0.00  0.72  0.00  0.02  0.26  0.00  0.00  0.78  0.00
  830of                   1.00   0.97  0.00  0.00  0.00  0.00  0.00  0.03  0.00  0.00
  831pipe                 1.00   0.00  0.00  0.00  0.99  0.01  0.00  0.00  0.93  0.00
  831of                   1.00   0.02  0.98  0.00  0.00  0.00  0.00  0.00  0.00  0.00
  827pipe                 1.00   0.00  0.00  0.00  0.49  0.00  0.00  0.51  0.47  0.00
  827of                   1.00   0.94  0.06  0.00  0.00  0.00  0.00  0.00  0.00  0.00
  826pipe                 1.00   0.00  0.00  0.00  0.99  0.01  0.00  0.00  0.00  0.00
  826of                   1.00   0.03  0.78  0.00  0.11  0.00  0.08  0.00  0.89  0.00
  825pipe                 1.00   0.00  0.00  0.00  0.99  0.01  0.00  0.00  0.01  0.00
  825of                   1.00   0.81  0.17  0.00  0.00  0.00  0.02  0.00  0.00  0.00
  51OVRFLW                1.00   1.00  0.00  0.00  0.00  0.00  0.00  0.00  0.00  0.00
  51_7x10_1               1.00   0.00  0.00  0.00  1.00  0.00  0.00  0.00  0.00  0.00
  51_7x10_2               1.00   0.00  0.00  0.00  1.00  0.00  0.00  0.00  0.00  0.00
  707_modify              1.00   0.00  0.00  0.00  1.00  0.00  0.00  0.00  0.00  0.00
  708_modify              1.00   0.00  0.00  0.00  1.00  0.00  0.00  0.00  0.00  0.00
  709_modify              1.00   0.00  0.00  0.00  1.00  0.00  0.00  0.00  0.00  0.00
  710_modify              1.00   0.00  0.00  0.00  1.00  0.00  0.00  0.00  0.01  0.00
  47PIPE                  1.00   0.00  0.00  0.00  0.58  0.42  0.00  0.00  0.00  0.00
  47OVRFLW                1.00   0.03  0.00  0.00  0.00  0.00  0.00  0.97  0.00  0.00
  746_modify              1.00   0.00  0.00  0.00  1.00  0.00  0.00  0.00  0.00  0.00
  804pipe                 1.00   0.00  0.00  0.00  1.00  0.00  0.00  0.00  0.00  0.00
  804chan                 1.00   0.96  0.00  0.00  0.02  0.00  0.00  0.02  0.00  0.00
  813pipe                 1.00   0.00  0.00  0.00  1.00  0.00  0.00  0.00  0.00  0.00
  813chan                 1.00   0.94  0.00  0.00  0.04  0.00  0.00  0.02  0.00  0.00
  812pipe                 1.00   0.00  0.00  0.00  1.00  0.00  0.00  0.00  0.15  0.00
  812chan                 1.00   0.95  0.00  0.00  0.03  0.00  0.00  0.03  0.00  0.00
  811pipe                 1.00   0.00  0.00  0.00  1.00  0.00  0.00  0.00  0.00  0.00
  811chan                 1.00   0.96  0.00  0.00  0.00  0.00  0.00  0.04  0.00  0.00
  838of                   1.00   0.92  0.00  0.00  0.02  0.00  0.00  0.05  0.02  0.00
  838pip                  1.00   0.00  0.00  0.00  0.97  0.00  0.00  0.03  0.88  0.00
  839chan                 1.00   0.87  0.01  0.00  0.12  0.00  0.00  0.00  0.99  0.00
  839pipe                 1.00   0.00  0.83  0.00  0.17  0.00  0.00  0.00  0.88  0.00
  838chan                 1.00   0.89  0.00  0.00  0.04  0.01  0.00  0.07  0.04  0.00
  838pipe                 1.00   0.00  0.00  0.00  1.00  0.00  0.00  0.00  0.01  0.00
  36inch_1                1.00   0.00  0.00  0.00  1.00  0.00  0.00  0.00  0.00  0.00
  54inch_1                1.00   0.00  0.00  0.00  0.94  0.06  0.00  0.00  0.28  0.00
  36inch_2                1.00   0.00  0.00  0.00  1.00  0.00  0.00  0.00  0.64  0.00
  54inch_2                1.00   0.00  0.00  0.00  0.96  0.04  0.00  0.00  0.76  0.00
  848pipe                 1.00   0.00  0.00  0.00  0.66  0.34  0.00  0.00  0.00  0.00
  848chan                 1.00   0.95  0.00  0.00  0.00  0.00  0.00  0.05  0.00  0.00
  849_1                   1.00   0.00  0.00  0.00  1.00  0.00  0.00  0.00  0.02  0.00
  849_2                   1.00   0.00  0.00  0.00  1.00  0.00  0.00  0.00  0.02  0.00
  849_trap                1.00   0.99  0.00  0.00  0.00  0.00  0.00  0.01  0.00  0.00
  853pipe                 1.00   0.00  0.00  0.00  1.00  0.00  0.00  0.00  0.00  0.00
  853of                   1.00   0.00  0.76  0.00  0.24  0.00  0.00  0.00  0.00  0.00
  854of                   1.00   0.00  0.00  0.00  0.04  0.00  0.00  0.95  0.00  0.00
  861_1                   1.00   0.00  0.00  0.00  1.00  0.00  0.00  0.00  0.00  0.00
  861_2                   1.00   0.00  0.00  0.00  1.00  0.00  0.00  0.00  0.00  0.00
  861_trap                1.00   0.98  0.00  0.00  0.00  0.00  0.00  0.02  0.00  0.00
  883culv                 1.00   0.00  0.00  0.00  1.00  0.00  0.00  0.00  0.91  0.00
  883of                   1.00   0.80  0.13  0.00  0.01  0.00  0.00  0.06  0.93  0.00
  889pipe                 1.00   0.00  0.78  0.00  0.21  0.00  0.00  0.01  0.94  0.00
  889chan                 1.00   0.93  0.07  0.00  0.00  0.00  0.00  0.00  0.00  0.00
  691pipe                 1.00   0.00  0.00  0.00  1.00  0.00  0.00  0.00  0.00  0.00
  691chan                 1.00   0.94  0.01  0.00  0.05  0.00  0.00  0.00  0.95  0.00
  892pipe                 1.00   0.00  0.00  0.00  1.00  0.00  0.00  0.00  0.15  0.00
  892chan                 1.00   1.00  0.00  0.00  0.00  0.00  0.00  0.00  0.00  0.00
  893pipe                 1.00   0.00  0.00  0.00  1.00  0.00  0.00  0.00  0.00  0.00
  893chan                 1.00   0.95  0.05  0.00  0.00  0.00  0.00  0.00  0.00  0.00
  55_OVRFLW               1.00   0.99  0.01  0.00  0.00  0.00  0.00  0.00  0.00  0.00
  55_5x12_1               1.00   0.00  0.00  0.00  1.00  0.00  0.00  0.00  0.00  0.00
  55_5x12_2               1.00   0.00  0.00  0.00  1.00  0.00  0.00  0.00  0.00  0.00
  53_#7TRP                1.00   0.00  0.00  0.00  1.00  0.00  0.00  0.00  0.00  0.00
  708pipe                 1.00   0.00  0.00  0.00  0.06  0.00  0.00  0.94  0.00  0.00
  708chan                 1.00   0.95  0.00  0.00  0.02  0.00  0.00  0.03  0.00  0.00
  706pipe                 1.00   0.00  0.00  0.00  0.06  0.00  0.00  0.94  0.00  0.00
  706chan                 1.00   0.96  0.00  0.00  0.00  0.00  0.00  0.04  0.00  0.00
  704pipe                 1.00   0.00  0.00  0.00  1.00  0.00  0.00  0.00  0.01  0.00
  704chan                 1.00   1.00  0.00  0.00  0.00  0.00  0.00  0.00  0.00  0.00
  702pipe                 1.00   0.00  0.00  0.00  1.00  0.00  0.00  0.00  0.88  0.00
  702chan                 1.00   1.00  0.00  0.00  0.00  0.00  0.00  0.00  0.00  0.00
  700pipe                 1.00   0.00  0.00  0.00  1.00  0.00  0.00  0.00  0.00  0.00
  700chan                 1.00   1.00  0.00  0.00  0.00  0.00  0.00  0.00  0.00  0.00
  707pipe                 1.00   0.70  0.00  0.00  0.06  0.00  0.00  0.24  0.00  0.00
  707chan                 1.00   0.95  0.00  0.00  0.04  0.00  0.00  0.01  0.98  0.00
  705pipe                 1.00   0.00  0.00  0.00  0.06  0.00  0.00  0.94  0.00  0.00
  705chan                 1.00   1.00  0.00  0.00  0.00  0.00  0.00  0.00  0.00  0.00
  750p                    1.00   0.60  0.00  0.00  0.05  0.00  0.00  0.35  0.00  0.00
  750c                    1.00   0.96  0.00  0.00  0.00  0.00  0.00  0.04  0.00  0.00
  701pipe                 1.00   0.00  0.00  0.00  0.02  0.00  0.00  0.98  0.00  0.00
  701chan                 1.00   0.94  0.00  0.00  0.00  0.00  0.00  0.06  0.00  0.00
  740pipe                 1.00   0.00  0.00  0.00  1.00  0.00  0.00  0.00  0.94  0.00
  740chan                 1.00   0.95  0.00  0.00  0.00  0.00  0.00  0.05  0.00  0.00
  768pipe                 1.00   0.00  0.00  0.00  0.49  0.00  0.00  0.51  0.41  0.00
  768chan                 1.00   0.94  0.00  0.00  0.00  0.00  0.00  0.06  0.00  0.00
  770pipe                 1.00   0.53  0.00  0.00  0.08  0.00  0.00  0.39  0.00  0.00
  770chan                 1.00   0.93  0.00  0.00  0.04  0.00  0.00  0.02  0.00  0.00
  769pipe                 1.00   0.00  0.00  0.00  0.96  0.04  0.00  0.00  0.00  0.00
  769chan                 1.00   0.94  0.00  0.00  0.00  0.00  0.00  0.06  0.00  0.00
  782pipe                 1.00   0.00  0.00  0.00  0.05  0.00  0.00  0.95  0.00  0.00
  782chan                 1.00   0.94  0.00  0.00  0.04  0.00  0.00  0.02  0.00  0.00
  781pipe                 1.00   0.00  0.00  0.00  0.99  0.01  0.00  0.00  0.95  0.00
  781chan                 1.00   0.96  0.00  0.00  0.00  0.00  0.00  0.04  0.00  0.00
  780pipe                 1.00   0.00  0.00  0.00  0.07  0.00  0.00  0.93  0.00  0.00
  780chan                 1.00   0.94  0.03  0.00  0.03  0.00  0.00  0.00  0.99  0.00
  775pipe                 1.00   0.61  0.00  0.00  0.38  0.00  0.00  0.00  0.66  0.00
  775chan                 1.00   0.94  0.01  0.00  0.05  0.00  0.00  0.00  0.95  0.00
  774pipe                 1.00   0.61  0.01  0.00  0.39  0.00  0.00  0.00  0.64  0.00
  774chan                 1.00   0.94  0.01  0.00  0.05  0.00  0.00  0.00  0.99  0.00
  773pipe                 1.00   0.57  0.04  0.00  0.39  0.00  0.00  0.00  0.66  0.00
  773chan                 1.00   0.94  0.00  0.00  0.05  0.00  0.00  0.01  0.94  0.00
  772pipe                 1.00   0.57  0.00  0.00  0.07  0.00  0.00  0.36  0.00  0.00
  772chan                 1.00   0.94  0.00  0.00  0.05  0.00  0.00  0.01  0.00  0.00
  771pipe                 1.00   0.53  0.04  0.00  0.43  0.00  0.00  0.00  0.78  0.00
  771chan                 1.00   0.93  0.01  0.00  0.05  0.00  0.00  0.01  0.98  0.00
  DEANPIPE1               1.00   0.00  0.00  0.00  1.00  0.00  0.00  0.00  0.05  0.00
  DEANPIPE2               1.00   0.00  0.00  0.00  1.00  0.00  0.00  0.00  0.05  0.00
  DEANOVER                1.00   1.00  0.00  0.00  0.00  0.00  0.00  0.00  0.00  0.00
  TEUT_OVF                1.00   1.00  0.00  0.00  0.00  0.00  0.00  0.00  0.00  0.00
  TEUTPIPE1               1.00   0.00  0.00  0.00  1.00  0.00  0.00  0.00  0.00  0.00
  GBPIPE                  1.00   0.00  0.00  0.00  1.00  0.00  0.00  0.00  0.00  0.00
  GB_OVER                 1.00   1.00  0.00  0.00  0.00  0.00  0.00  0.00  0.00  0.00
  .21NAT                  1.00   0.00  0.00  0.00  1.00  0.00  0.00  0.00  0.00  0.00
  DEERWPIPE               1.00   0.00  0.00  0.00  1.00  0.00  0.00  0.00  0.00  0.00
  DEER_OVR                1.00   1.00  0.00  0.00  0.00  0.00  0.00  0.00  0.00  0.00
  .13_NAT                 1.00   0.00  0.00  0.00  1.00  0.00  0.00  0.00  0.00  0.00
  PATH_PIPE               1.00   0.00  0.00  0.00  1.00  0.00  0.00  0.00  0.00  0.00
  PATH_OV                 1.00   0.01  0.00  0.00  0.99  0.00  0.00  0.00  0.00  0.00
  BradleyIn               1.00   0.00  0.36  0.00  0.06  0.02  0.55  0.00  0.01  0.00
  Brad_Out                1.00   0.00  0.00  0.00  0.09  0.91  0.00  0.00  0.01  0.00
  BradBox                 1.00   0.00  0.57  0.00  0.40  0.03  0.00  0.00  0.97  0.00
  BradBoxOv               1.00   1.00  0.00  0.00  0.00  0.00  0.00  0.00  0.00  0.00
  s_config2               1.00   0.00  0.00  0.00  1.00  0.00  0.00  0.00  0.00  0.00
  LIB_1                   1.00   0.00  0.00  0.00  0.99  0.01  0.00  0.00  0.93  0.00
  LIB_2                   1.00   0.00  0.00  0.00  1.00  0.00  0.00  0.00  0.00  0.00
  LIB_3                   1.00   0.00  0.00  0.00  1.00  0.00  0.00  0.00  0.00  0.00
  LIB_4                   1.00   0.00  0.00  0.00  1.00  0.00  0.00  0.00  0.00  0.00
  LIB_5                   1.00   0.00  0.00  0.00  1.00  0.00  0.00  0.00  0.00  0.00
  LIB_6                   1.00   0.00  0.00  0.00  1.00  0.00  0.00  0.00  0.00  0.00
  LIB_7                   1.00   0.00  0.00  0.00  1.00  0.00  0.00  0.00  0.00  0.00
  LIB_8                   1.00   0.00  0.00  0.00  1.00  0.00  0.00  0.00  0.00  0.00
  LIB_9                   1.00   0.00  0.00  0.00  1.00  0.00  0.00  0.00  0.00  0.00
  LIB_10                  1.00   0.00  0.00  0.00  1.00  0.00  0.00  0.00  0.00  0.00
  LIB_12                  1.00   0.00  0.00  0.00  1.00  0.00  0.00  0.00  0.00  0.00
  
  
  *************************
  Conduit Surcharge Summary
  *************************
  
  ----------------------------------------------------------------------------
                                                           Hours        Hours 
                         --------- Hours Full --------   Above Full   Capacity
  Conduit                Both Ends  Upstream  Dnstream   Normal Flow   Limited
  ----------------------------------------------------------------------------
  644                         0.01      2.22      0.01      2.99         0.01
  817pipe                     1.02      1.02      1.28      0.87         0.86
  816pipe                     1.30      1.30      1.55      1.13         1.13
  815pipe1                    1.55      1.55      1.65      0.01         0.01
  815pipe2                    1.55      1.55      1.65      0.01         0.01
  814pipe                     1.52      1.65      1.52      1.67         1.50
  810pipe1                    0.52      0.57      0.52      0.75         0.52
  810pipe2                    0.57      0.82      0.57      1.00         0.56
  789pipe                     0.52      0.52      0.99      0.37         0.37
  803pipe                     0.57      0.70      0.57      0.78         0.57
  805pipe1                    0.45      0.45     23.45      0.01         0.01
  805pipe2                    0.45      0.45     23.34      0.15         0.01
  830pipe                     0.01      0.70      0.01      0.47         0.01
  831pipe                     1.49      1.56     23.74      0.22         0.19
  827pipe                     0.01      0.01      1.78      0.01         0.01
  826pipe                    23.63     23.73     23.63      0.08         0.02
  825pipe                    23.08     23.08     23.70      0.01         0.01
  51_7x10_1                   0.66      0.66      0.79      0.55         0.20
  51_7x10_2                   0.66      0.66      0.79      0.55         0.20
  47PIPE                     11.00     23.85     11.00     23.75        11.00
  804pipe                     0.78      0.94      0.78      0.61         0.36
  813pipe                     1.27      1.38      1.27      1.51         1.24
  812pipe                     1.13      1.20      1.13      0.82         0.68
  811pipe                     0.65      1.05      0.65      1.16         0.65
  838pip                      1.94      2.82      1.94      2.31         1.42
  839pipe                     2.69      2.69      2.81      0.01         0.01
  838pipe                     2.81      2.81      2.82      1.96         1.94
  36inch_1                    0.01      0.01      0.52      0.06         0.01
  36inch_2                    0.01      0.52      0.01      0.87         0.01
  848pipe                     0.88      3.35      0.88      3.99         0.88
  849_1                       0.01      0.01      0.01      0.84         0.01
  849_2                       0.01      0.01      0.01      0.84         0.01
  853pipe                    23.86     23.86     23.86      0.10         0.10
  861_1                       0.56      0.67      0.56      1.05         0.56
  861_2                       0.56      0.67      0.56      1.05         0.56
  883culv                     1.69      1.91      5.72      1.47         1.22
  889pipe                     0.67      0.67     23.73      0.01         0.01
  691pipe                     1.34      1.34      1.62      0.01         0.01
  892pipe                     1.18      6.51      1.43      7.68         0.74
  893pipe                     0.36      0.36      1.34      0.01         0.01
  55_5x12_1                   1.31      1.31      1.39      0.01         0.22
  55_5x12_2                   1.31      1.31      1.39      0.01         0.22
  708pipe                     1.12      1.14      1.15      0.27         0.23
  706pipe                     1.14      1.15      1.16      1.14         1.10
  704pipe                     1.20      1.20      1.23      1.14         1.11
  702pipe                     1.21      1.23      1.43      1.18         1.13
  700pipe                     1.37      1.57      1.47      1.31         1.05
  707pipe                     1.08      1.15      1.17      0.26         0.17
  705pipe                     1.14      1.25      1.17      0.42         0.30
  750p                        0.85      1.10      0.85      1.12         0.85
  701pipe                     0.16      1.28      0.16      1.30         0.16
  740pipe                     1.12      1.15     23.76      1.08         1.04
  768pipe                     0.79      1.45      0.88      1.49         0.78
  770pipe                     1.48      1.50      1.49      0.25         0.20
  769pipe                     1.45      1.49      1.45      1.53         1.45
  782pipe                     1.00      1.25      1.00      0.38         0.12
  781pipe                     0.97      0.97      1.22      0.01         0.01
  780pipe                     1.20      1.22      1.32      0.97         0.93
  775pipe                     1.40      1.40      1.43      0.18         0.16
  774pipe                     1.42      1.43      1.45      1.15         1.13
  773pipe                     1.41      1.45      1.45      0.77         0.73
  772pipe                     1.43      1.45      1.48      1.19         1.16
  771pipe                     1.46      1.48      1.50      0.35         0.31
  DEANPIPE1                   0.15      0.15      0.21      0.01         0.01
  DEANPIPE2                   0.15      0.15      0.21      0.01         0.01
  GBPIPE                      0.01      0.01      0.01      0.34         0.01
  DEERWPIPE                   0.01      0.55      0.01      1.70         0.01
  PATH_PIPE                  23.71     23.71     23.71      0.56         0.55
  BradleyIn                   0.01      0.01      4.48      0.01         0.01
  Brad_Out                    1.87     23.81      1.99      2.01         1.47
  

  Analysis begun on:  Tue Nov 20 16:39:46 2018
  Analysis ended on:  Tue Nov 20 16:40:10 2018
  Total elapsed time: 00:00:24