
  EPA STORM WATER MANAGEMENT MODEL - VERSION 5.1 (Build 5.1.012)
  --------------------------------------------------------------

  
  *************
  Element Count
  *************
  Number of rain gages ...... 0
  Number of subcatchments ... 0
  Number of nodes ........... 61
  Number of links ........... 60
  Number of pollutants ...... 0
  Number of land uses ....... 0
  
  
  ************
  Node Summary
  ************
                                           Invert      Max.    Ponded    External
  Name                 Type                 Elev.     Depth      Area    Inflow  
  -------------------------------------------------------------------------------
  10309                JUNCTION            101.60      9.40       0.0
  10309a               JUNCTION            101.60      9.40       0.0
  10309b               JUNCTION            101.60      9.40       0.0
  10309c               JUNCTION            101.60      9.40       0.0
  10309d               JUNCTION            101.60      9.40       0.0
  10309e               JUNCTION            101.60      9.40       0.0
  15009                JUNCTION            111.50     13.50       0.0
  15009a               JUNCTION            111.50     13.50       0.0
  15009b               JUNCTION            111.50     13.50       0.0
  15009c               JUNCTION            111.50     13.50       0.0
  15009d               JUNCTION            111.50     13.50       0.0
  15009e               JUNCTION            121.00     13.50       0.0
  16009                JUNCTION            102.00     18.00       0.0
  16009a               JUNCTION            102.00     18.00       0.0
  16009b               JUNCTION            102.00     18.00       0.0
  16009c               JUNCTION            102.00     18.00       0.0
  16009d               JUNCTION            102.00     18.00       0.0
  16009e               JUNCTION            102.00     18.00       0.0
  16109                JUNCTION            102.80     22.20       0.0    Yes
  16109a               JUNCTION            102.80     22.20       0.0
  16109b               JUNCTION            102.80     22.20       0.0
  16109c               JUNCTION            102.80     22.20       0.0
  16109d               JUNCTION            102.80     22.20       0.0
  16109e               JUNCTION            102.80     22.20       0.0
  80408                JUNCTION            120.00     13.40       0.0    Yes
  80408a               JUNCTION            124.60     13.40       0.0    Yes
  80408b               JUNCTION            124.60     13.40       0.0    Yes
  80408c               JUNCTION            124.60     13.40       0.0    Yes
  80408d               JUNCTION            124.60     13.40       0.0    Yes
  80408e               JUNCTION            124.60     13.40       0.0    Yes
  80608                JUNCTION            118.30     16.70       0.0
  80608a               JUNCTION            118.30     16.70       0.0
  80608b               JUNCTION            118.30     16.70       0.0
  80608c               JUNCTION            118.30     16.70       0.0
  80608d               JUNCTION            118.30     16.70       0.0
  80608e               JUNCTION            118.30     16.70       0.0
  81009                JUNCTION            128.20      8.80       0.0    Yes
  81009a               JUNCTION            128.20      8.80       0.0    Yes
  81009b               JUNCTION            128.20      8.80       0.0    Yes
  81009c               JUNCTION            128.20      8.80       0.0    Yes
  81009d               JUNCTION            128.20      8.80       0.0    Yes
  81009e               JUNCTION            128.20      8.80       0.0    Yes
  81309                JUNCTION            117.50     12.50       0.0
  81309a               JUNCTION            117.50     12.50       0.0
  81309b               JUNCTION            117.50     12.50       0.0
  81309c               JUNCTION            117.50     12.50       0.0
  81309d               JUNCTION            117.50     12.50       0.0
  81309e               JUNCTION            117.50     12.50       0.0
  82308d               JUNCTION            112.30     42.70       0.0
  82309                JUNCTION            112.30     42.70       0.0    Yes
  82309a               JUNCTION            112.30     42.70       0.0    Yes
  82309b               JUNCTION            112.30     42.70       0.0    Yes
  82309c               JUNCTION            112.30     42.70       0.0    Yes
  WetWell              JUNCTION            112.30     21.00       0.0    Yes
  10208                OUTFALL              89.90      9.00       0.0
  10208b               OUTFALL              89.90      9.00       0.0
  10208c               OUTFALL              89.90      9.00       0.0
  10208d               OUTFALL              89.90      9.00       0.0
  10208e               OUTFALL              89.90      9.00       0.0
  10208a               OUTFALL              89.90      9.00       0.0
  82309d               STORAGE             112.30     42.70       0.0    Yes
  
  
  ************
  Link Summary
  ************
  Name             From Node        To Node          Type            Length    %Slope Roughness
  ---------------------------------------------------------------------------------------------
  1030e            10309e           10208e           CONDUIT         4500.0    0.2600    0.0160
  1030             10309            10208            CONDUIT         4500.0    0.2600    0.2000
  1030a            10309a           10208a           CONDUIT         4500.0    0.2600    0.0160
  1030b            10309b           10208b           CONDUIT         4500.0    0.2600    0.0160
  1030c            10309c           10208c           CONDUIT         4500.0    0.2600    0.0160
  1030d            10309d           10208d           CONDUIT         4500.0    0.2600    0.0160
  1570             15009            16009            CONDUIT         5000.0    0.1900    0.0154
  1570a            15009a           16009a           CONDUIT         5000.0    0.1900    0.0154
  ControlLink      15009b           16009b           CONDUIT         5000.0    0.1900    0.0154
  1570c            15009c           16009c           CONDUIT          100.0    9.5432    0.0154
  1570d            15009d           16009d           CONDUIT         5000.0    0.1900    0.0154
  1570e            15009e           16009e           CONDUIT         5000.0    0.3800    0.0154
  1600             16009            16109            CONDUIT          500.0   -0.1600    0.0150
  1600a            16009a           16109a           CONDUIT          500.0   -0.1600    0.0150
  1600b            16009b           16109b           CONDUIT          500.0   -0.1600    0.0150
  1600c            16009c           16109c           CONDUIT          500.0   -0.1600    0.0150
  1600d            16009d           16109d           CONDUIT          500.0   -0.1600    0.0150
  1600e            16009e           16109e           CONDUIT          500.0   -0.1600    0.0150
  1602             82309            16109            CONDUIT         5000.0    0.1900    0.0340
  1602a            82309a           16109a           CONDUIT         5000.0    0.1900    0.0340
  1602b            82309b           16109b           CONDUIT         5000.0    0.1900    0.0340
  1602c            82309c           16109c           CONDUIT         5000.0    0.1900    0.0340
  1602d            82309d           16109d           CONDUIT         5000.0    0.1900    0.0340
  1602e            WetWell          16109e           CONDUIT         5000.0    0.1900    0.0340
  1630             16009            10309            CONDUIT          300.0    0.1333    0.0150
  1630a            16009a           10309a           CONDUIT          300.0    0.1333    0.0150
  1630b            16009b           10309b           CONDUIT          300.0    0.1333    0.0150
  1630c            16009c           10309c           CONDUIT          300.0    0.1333    0.0150
  1630d            16009d           10309d           CONDUIT          300.0    0.1333    0.0150
  1630e            16009e           10309e           CONDUIT          300.0    0.1333    0.0150
  8040             80408            80608            CONDUIT         1800.0    0.0944    0.0150
  8040a            80408a           80608a           CONDUIT         1800.0    0.3500    0.0150
  8040b            80408b           80608b           CONDUIT         1800.0    0.3500    0.0150
  8040c            80408c           80608c           CONDUIT         1800.0    0.3500    0.0150
  8040d            80408d           80608d           CONDUIT         1800.0    0.3500    0.0150
  8040e            80408e           80608e           CONDUIT         1800.0    0.3500    0.0150
  8060             80608            82309            CONDUIT         2075.0    0.1831    0.0150
  8060a            80608a           82309a           CONDUIT         2075.0    0.1831    0.0150
  8060b            80608b           82309b           CONDUIT         2075.0    0.1831    0.0150
  8060c            80608c           82309c           CONDUIT         2075.0    0.1831    0.0150
  8060d            80608d           82309d           CONDUIT         2075.0    0.1831    0.0150
  8060e            80608e           WetWell          CONDUIT         2075.0    0.1831    0.0150
  8100             81009            81309            CONDUIT         5100.0    0.2098    0.0150
  8100a            81009a           81309a           CONDUIT         5100.0    0.2098    0.0150
  8100b            81009b           81309b           CONDUIT         5100.0    0.2098    0.0150
  8100c            81009c           81309c           CONDUIT         5100.0    0.2098    0.0150
  8100d            81009d           81309d           CONDUIT         5100.0    0.2098    0.0150
  8100e            81009e           81309e           CONDUIT         5100.0    0.2098    0.0150
  8130             81309            15009            CONDUIT         3500.0    0.1714    0.0150
  8130a            81309a           15009a           CONDUIT         3500.0    0.1714    0.0150
  8130b            81309b           15009b           CONDUIT         3500.0    0.1714    0.0150
  8130c            81309c           15009c           CONDUIT         3500.0    0.1714    0.0150
  8130d            81309d           15009d           CONDUIT         3500.0    0.1714    0.0150
  8130e            81309e           15009e           CONDUIT         3500.0   -0.1000    0.0150
  Pump1            WetWell          15009e           TYPE3 PUMP  
  Pump2            WetWell          15009e           TYPE3 PUMP  
  Pump3            WetWell          15009e           TYPE3 PUMP  
  OR1@82309d-82308d 82309d           82308d           ORIFICE     
  ControlOrifice   82309b           15009b           ORIFICE     
  WEIR1@82309c-15009c 82309c           15009c           WEIR        
  
  
  *********************
  Cross Section Summary
  *********************
                                        Full     Full     Hyd.     Max.   No. of     Full
  Conduit          Shape               Depth     Area     Rad.    Width  Barrels     Flow
  ---------------------------------------------------------------------------------------
  1030e            TRIANGULAR           9.00   243.00     4.27    54.00        1  3028.41
  1030             TRIANGULAR           9.00   243.00     4.27    54.00        1   242.27
  1030a            TRIANGULAR           9.00   243.00     4.27    54.00        1  3028.41
  1030b            TRIANGULAR           9.00   243.00     4.27    54.00        1  3028.41
  1030c            TRIANGULAR           9.00   243.00     4.27    54.00        1  3028.41
  1030d            TRIANGULAR           9.00   243.00     4.27    54.00        1  3028.41
  1570             CIRCULAR             5.50    23.76     1.38     5.50        1   123.56
  1570a            CIRCULAR             5.50    23.76     1.38     5.50        1   123.56
  ControlLink      CIRCULAR             5.50    23.76     1.38     5.50        1   123.56
  1570c            CIRCULAR             5.50    23.76     1.38     5.50        1   875.71
  1570d            CIRCULAR             5.50    23.76     1.38     5.50        1   123.56
  1570e            CIRCULAR             5.50    23.76     1.38     5.50        1   174.75
  1600             CIRCULAR             6.00    28.27     1.50     6.00        1   146.82
  1600a            CIRCULAR             6.00    28.27     1.50     6.00        1   146.82
  1600b            CIRCULAR             6.00    28.27     1.50     6.00        1   146.82
  1600c            CIRCULAR             6.00    28.27     1.50     6.00        1   146.82
  1600d            CIRCULAR             6.00    28.27     1.50     6.00        1   146.82
  1600e            CIRCULAR             6.00    28.27     1.50     6.00        1   146.82
  1602             CIRCULAR             5.00    19.63     1.25     5.00        1    43.41
  1602a            CIRCULAR             5.00    19.63     1.25     5.00        1    43.41
  1602b            CIRCULAR             5.00    19.63     1.25     5.00        1    43.41
  1602c            CIRCULAR             5.00    19.63     1.25     5.00        1    43.41
  1602d            CIRCULAR             5.00    19.63     1.25     5.00        1    43.41
  1602e            CIRCULAR             5.00    19.63     1.25     5.00        1    43.41
  1630             TRIANGULAR           9.00   243.00     4.27    54.00        1  2313.27
  1630a            TRIANGULAR           9.00   243.00     4.27    54.00        1  2313.27
  1630b            TRIANGULAR           9.00   243.00     4.27    54.00        1  2313.27
  1630c            TRIANGULAR           9.00   243.00     4.27    54.00        1  2313.27
  1630d            TRIANGULAR           9.00   243.00     4.27    54.00        1  2313.27
  1630e            TRIANGULAR           9.00   243.00     4.27    54.00        1  2313.27
  8040             FORCE_MAIN           4.00    12.57     1.00     4.00        1    45.19
  8040a            CIRCULAR             4.00    12.57     1.00     4.00        1    73.65
  8040b            CIRCULAR             4.00    12.57     1.00     4.00        1    73.65
  8040c            CIRCULAR             4.00    12.57     1.00     4.00        1    73.65
  8040d            CIRCULAR             4.00    12.57     1.00     4.00        1    73.65
  8040e            CIRCULAR             4.00    12.57     1.00     4.00        1    73.65
  8060             CIRCULAR             4.00    12.57     1.00     4.00        1    53.27
  8060a            CIRCULAR             4.00    12.57     1.00     4.00        1    53.27
  8060b            CIRCULAR             4.00    12.57     1.00     4.00        1    53.27
  8060c            CIRCULAR             4.00    12.57     1.00     4.00        1    53.27
  8060d            CIRCULAR             4.00    12.57     1.00     4.00        1    53.27
  8060e            CIRCULAR             4.00    12.57     1.00     4.00        1    53.27
  8100             CIRCULAR             4.50    15.90     1.13     4.50        1    78.06
  8100a            CIRCULAR             4.50    15.90     1.13     4.50        1    78.06
  8100b            CIRCULAR             4.50    15.90     1.13     4.50        1    78.06
  8100c            CIRCULAR             4.50    15.90     1.13     4.50        1    78.06
  8100d            CIRCULAR             4.50    15.90     1.13     4.50        1    78.06
  8100e            CIRCULAR             4.50    15.90     1.13     4.50        1    78.06
  8130             CIRCULAR             4.50    15.90     1.13     4.50        1    70.56
  8130a            CIRCULAR             4.50    15.90     1.13     4.50        1    70.56
  8130b            CIRCULAR             4.50    15.90     1.13     4.50        1    70.56
  8130c            CIRCULAR             4.50    15.90     1.13     4.50        1    70.56
  8130d            CIRCULAR             4.50    15.90     1.13     4.50        1    70.56
  8130e            CIRCULAR             4.50    15.90     1.13     4.50        1    53.89
  
  
  *************
  Shape Summary
  *************

  Shape EGG
  Area:  
              0.0020     0.0081     0.0170     0.0278     0.0401 
              0.0533     0.0676     0.0828     0.0990     0.1159 
              0.1337     0.1522     0.1713     0.1912     0.2117 
              0.2328     0.2545     0.2768     0.2997     0.3229 
              0.3465     0.3706     0.3950     0.4199     0.4452 
              0.4708     0.4968     0.5230     0.5493     0.5759 
              0.6026     0.6296     0.6566     0.6833     0.7099 
              0.7362     0.7623     0.7879     0.8131     0.8376 
              0.8615     0.8845     0.9066     0.9278     0.9476 
              0.9658     0.9810     0.9916     0.9979     1.0000 
  Hrad:  
              0.0405     0.0810     0.1365     0.1854     0.2387 
              0.2873     0.3326     0.3752     0.4178     0.4583 
              0.4977     0.5355     0.5723     0.6077     0.6426 
              0.6763     0.7088     0.7405     0.7730     0.8044 
              0.8346     0.8638     0.8922     0.9197     0.9465 
              0.9725     0.9991     1.0247     1.0494     1.0732 
              1.0962     1.1186     1.1399     1.1599     1.1787 
              1.1964     1.2115     1.2255     1.2362     1.2457 
              1.2511     1.2551     1.2556     1.2548     1.2421 
              1.2280     1.1656     1.1059     1.0523     1.0000 
  Width: 
              0.1490     0.2980     0.3655     0.4330     0.4705 
              0.5080     0.5450     0.5820     0.6120     0.6420 
              0.6690     0.6960     0.7210     0.7460     0.7685 
              0.7910     0.8135     0.8360     0.8510     0.8660 
              0.8810     0.8960     0.9110     0.9260     0.9410 
              0.9560     0.9630     0.9700     0.9775     0.9850 
              0.9925     1.0000     0.9925     0.9850     0.9775 
              0.9700     0.9550     0.9400     0.9180     0.8960 
              0.8660     0.8360     0.8000     0.7640     0.7030 
              0.6420     0.4760     0.3100     0.1550     0.0000 
  
  
  
  *********************************************************
  NOTE: The summary statistics displayed in this report are
  based on results found at every computational time step,  
  not just on results from each reporting time step.
  *********************************************************
  
  ****************
  Analysis Options
  ****************
  Flow Units ............... CFS
  Process Models:
    Rainfall/Runoff ........ NO
    RDII ................... NO
    Snowmelt ............... NO
    Groundwater ............ NO
    Flow Routing ........... YES
    Ponding Allowed ........ YES
    Water Quality .......... NO
  Flow Routing Method ...... DYNWAVE
  Starting Date ............ 01/01/1988 00:00:00
  Ending Date .............. 01/01/1988 06:00:00
  Antecedent Dry Days ...... 0.0
  Report Time Step ......... 00:01:00
  Routing Time Step ........ 30.00 sec
  Variable Time Step ....... NO
  Maximum Trials ........... 8
  Number of Threads ........ 1
  Head Tolerance ........... 0.005000 ft
  
  
  *********************
  Control Actions Taken
  *********************
   01/01/1988: 00:00:00 Link ControlOrifice setting changed to   0.50 by Control Downstream
   01/01/1988: 00:15:30 Link Pump2 setting changed to   0.00 by Control Pump1
   01/01/1988: 00:16:00 Link Pump2 setting changed to   0.00 by Control Pump1
   01/01/1988: 00:16:30 Link Pump2 setting changed to   0.00 by Control Pump1
   01/01/1988: 00:17:00 Link Pump2 setting changed to   0.00 by Control Pump1
   01/01/1988: 00:17:30 Link Pump2 setting changed to   0.00 by Control Pump1
   01/01/1988: 00:18:00 Link Pump2 setting changed to   0.00 by Control Pump1
   01/01/1988: 00:18:30 Link Pump2 setting changed to   0.00 by Control Pump1
   01/01/1988: 00:19:00 Link Pump2 setting changed to   0.00 by Control Pump1
   01/01/1988: 00:19:30 Link Pump2 setting changed to   0.00 by Control Pump1
   01/01/1988: 00:20:00 Link Pump2 setting changed to   0.00 by Control Pump1
   01/01/1988: 00:20:30 Link Pump2 setting changed to   0.00 by Control Pump1
   01/01/1988: 00:21:00 Link Pump2 setting changed to   0.00 by Control Pump1
   01/01/1988: 00:21:30 Link Pump2 setting changed to   0.00 by Control Pump1
   01/01/1988: 00:22:00 Link Pump1 setting changed to   0.00 by Control Pump2
   01/01/1988: 00:22:30 Link Pump1 setting changed to   0.00 by Control Pump2
   01/01/1988: 00:23:00 Link Pump1 setting changed to   0.00 by Control Pump2
   01/01/1988: 00:23:30 Link Pump1 setting changed to   0.00 by Control Pump2
   01/01/1988: 00:24:00 Link Pump1 setting changed to   0.00 by Control Pump2
   01/01/1988: 00:24:30 Link Pump1 setting changed to   0.00 by Control Pump2
   01/01/1988: 00:25:00 Link Pump1 setting changed to   0.00 by Control Pump2
   01/01/1988: 00:25:30 Link Pump1 setting changed to   0.00 by Control Pump2
   01/01/1988: 00:26:00 Link Pump1 setting changed to   0.00 by Control Pump2
   01/01/1988: 00:26:30 Link Pump1 setting changed to   0.00 by Control Pump2
   01/01/1988: 00:27:00 Link Pump1 setting changed to   0.00 by Control Pump2
   01/01/1988: 00:27:30 Link Pump1 setting changed to   0.00 by Control Pump2
   01/01/1988: 00:28:00 Link Pump1 setting changed to   0.00 by Control Pump2
   01/01/1988: 00:28:30 Link Pump1 setting changed to   0.00 by Control Pump2
   01/01/1988: 00:29:00 Link Pump1 setting changed to   0.00 by Control Pump2
   01/01/1988: 00:29:30 Link Pump1 setting changed to   0.00 by Control Pump2
   01/01/1988: 00:30:00 Link Pump1 setting changed to   0.00 by Control Pump2
   01/01/1988: 00:30:30 Link Pump1 setting changed to   0.00 by Control Pump2
   01/01/1988: 00:31:00 Link Pump1 setting changed to   0.00 by Control Pump2
   01/01/1988: 00:31:30 Link Pump1 setting changed to   0.00 by Control Pump2
   01/01/1988: 00:32:00 Link Pump1 setting changed to   0.00 by Control Pump2
   01/01/1988: 00:32:30 Link Pump1 setting changed to   0.00 by Control Pump2
   01/01/1988: 00:33:00 Link Pump1 setting changed to   0.00 by Control Pump2
   01/01/1988: 00:33:30 Link Pump1 setting changed to   0.00 by Control Pump2
   01/01/1988: 00:34:00 Link Pump1 setting changed to   0.00 by Control Pump2
   01/01/1988: 00:34:30 Link Pump1 setting changed to   0.00 by Control Pump2
   01/01/1988: 00:35:00 Link Pump1 setting changed to   0.00 by Control Pump2
   01/01/1988: 00:35:30 Link Pump1 setting changed to   0.00 by Control Pump2
   01/01/1988: 00:36:00 Link Pump1 setting changed to   0.00 by Control Pump2
   01/01/1988: 00:36:30 Link Pump1 setting changed to   0.00 by Control Pump2
   01/01/1988: 00:37:00 Link Pump1 setting changed to   0.00 by Control Pump2
   01/01/1988: 00:37:30 Link Pump1 setting changed to   0.00 by Control Pump2
   01/01/1988: 00:38:00 Link Pump1 setting changed to   0.00 by Control Pump2
   01/01/1988: 00:38:30 Link Pump1 setting changed to   0.00 by Control Pump2
   01/01/1988: 00:39:00 Link Pump1 setting changed to   0.00 by Control Pump2
   01/01/1988: 00:39:00 Link ControlOrifice setting changed to   0.00 by Control Downstream
   01/01/1988: 00:39:30 Link Pump1 setting changed to   0.00 by Control Pump2
   01/01/1988: 00:40:00 Link Pump1 setting changed to   0.00 by Control Pump2
   01/01/1988: 00:40:30 Link Pump1 setting changed to   0.00 by Control Pump2
   01/01/1988: 00:41:00 Link Pump1 setting changed to   0.00 by Control Pump2
   01/01/1988: 00:41:30 Link Pump1 setting changed to   0.00 by Control Pump2
   01/01/1988: 00:42:00 Link Pump1 setting changed to   0.00 by Control Pump2
   01/01/1988: 00:42:30 Link Pump1 setting changed to   0.00 by Control Pump2
   01/01/1988: 00:43:00 Link Pump1 setting changed to   0.00 by Control Pump2
   01/01/1988: 00:43:30 Link Pump1 setting changed to   0.00 by Control Pump2
   01/01/1988: 00:44:00 Link Pump1 setting changed to   0.00 by Control Pump2
   01/01/1988: 00:44:30 Link Pump1 setting changed to   0.00 by Control Pump2
   01/01/1988: 00:45:00 Link Pump1 setting changed to   0.00 by Control Pump2
   01/01/1988: 00:45:30 Link Pump1 setting changed to   0.00 by Control Pump2
   01/01/1988: 00:46:00 Link Pump1 setting changed to   0.00 by Control Pump2
   01/01/1988: 00:46:30 Link Pump2 setting changed to   0.00 by Control Pump3
   01/01/1988: 00:46:30 Link Pump1 setting changed to   0.00 by Control Pump3
   01/01/1988: 00:47:00 Link Pump2 setting changed to   0.00 by Control Pump3
   01/01/1988: 00:47:00 Link Pump1 setting changed to   0.00 by Control Pump3
   01/01/1988: 00:47:30 Link Pump2 setting changed to   0.00 by Control Pump3
   01/01/1988: 00:47:30 Link Pump1 setting changed to   0.00 by Control Pump3
   01/01/1988: 00:48:00 Link Pump2 setting changed to   0.00 by Control Pump3
   01/01/1988: 00:48:00 Link Pump1 setting changed to   0.00 by Control Pump3
   01/01/1988: 00:48:30 Link Pump2 setting changed to   0.00 by Control Pump3
   01/01/1988: 00:48:30 Link Pump1 setting changed to   0.00 by Control Pump3
   01/01/1988: 00:49:00 Link Pump2 setting changed to   0.00 by Control Pump3
   01/01/1988: 00:49:00 Link Pump1 setting changed to   0.00 by Control Pump3
   01/01/1988: 00:49:30 Link Pump2 setting changed to   0.00 by Control Pump3
   01/01/1988: 00:49:30 Link Pump1 setting changed to   0.00 by Control Pump3
   01/01/1988: 00:50:00 Link Pump2 setting changed to   0.00 by Control Pump3
   01/01/1988: 00:50:00 Link Pump1 setting changed to   0.00 by Control Pump3
   01/01/1988: 00:50:30 Link Pump2 setting changed to   0.00 by Control Pump3
   01/01/1988: 00:50:30 Link Pump1 setting changed to   0.00 by Control Pump3
   01/01/1988: 00:51:00 Link Pump2 setting changed to   0.00 by Control Pump3
   01/01/1988: 00:51:00 Link Pump1 setting changed to   0.00 by Control Pump3
   01/01/1988: 00:51:30 Link Pump2 setting changed to   0.00 by Control Pump3
   01/01/1988: 00:51:30 Link Pump1 setting changed to   0.00 by Control Pump3
   01/01/1988: 00:52:00 Link Pump2 setting changed to   0.00 by Control Pump3
   01/01/1988: 00:52:00 Link Pump1 setting changed to   0.00 by Control Pump3
   01/01/1988: 00:52:30 Link Pump2 setting changed to   0.00 by Control Pump3
   01/01/1988: 00:52:30 Link Pump1 setting changed to   0.00 by Control Pump3
   01/01/1988: 00:53:00 Link Pump2 setting changed to   0.00 by Control Pump3
   01/01/1988: 00:53:00 Link Pump1 setting changed to   0.00 by Control Pump3
   01/01/1988: 00:53:30 Link Pump2 setting changed to   0.00 by Control Pump3
   01/01/1988: 00:53:30 Link Pump1 setting changed to   0.00 by Control Pump3
   01/01/1988: 00:54:00 Link Pump2 setting changed to   0.00 by Control Pump3
   01/01/1988: 00:54:00 Link Pump1 setting changed to   0.00 by Control Pump3
   01/01/1988: 00:54:30 Link Pump2 setting changed to   0.00 by Control Pump3
   01/01/1988: 00:54:30 Link Pump1 setting changed to   0.00 by Control Pump3
   01/01/1988: 00:55:00 Link Pump2 setting changed to   0.00 by Control Pump3
   01/01/1988: 00:55:00 Link Pump1 setting changed to   0.00 by Control Pump3
   01/01/1988: 00:55:30 Link Pump2 setting changed to   0.00 by Control Pump3
   01/01/1988: 00:55:30 Link Pump1 setting changed to   0.00 by Control Pump3
   01/01/1988: 00:56:00 Link Pump2 setting changed to   0.00 by Control Pump3
   01/01/1988: 00:56:00 Link Pump1 setting changed to   0.00 by Control Pump3
   01/01/1988: 00:56:30 Link Pump2 setting changed to   0.00 by Control Pump3
   01/01/1988: 00:56:30 Link Pump1 setting changed to   0.00 by Control Pump3
   01/01/1988: 00:57:00 Link Pump2 setting changed to   0.00 by Control Pump3
   01/01/1988: 00:57:00 Link Pump1 setting changed to   0.00 by Control Pump3
   01/01/1988: 00:57:30 Link Pump2 setting changed to   0.00 by Control Pump3
   01/01/1988: 00:57:30 Link Pump1 setting changed to   0.00 by Control Pump3
   01/01/1988: 00:58:00 Link Pump2 setting changed to   0.00 by Control Pump3
   01/01/1988: 00:58:00 Link Pump1 setting changed to   0.00 by Control Pump3
   01/01/1988: 00:58:30 Link Pump2 setting changed to   0.00 by Control Pump3
   01/01/1988: 00:58:30 Link Pump1 setting changed to   0.00 by Control Pump3
   01/01/1988: 00:59:00 Link Pump2 setting changed to   0.00 by Control Pump3
   01/01/1988: 00:59:00 Link Pump1 setting changed to   0.00 by Control Pump3
   01/01/1988: 00:59:30 Link Pump2 setting changed to   0.00 by Control Pump3
   01/01/1988: 00:59:30 Link Pump1 setting changed to   0.00 by Control Pump3
   01/01/1988: 01:00:00 Link Pump2 setting changed to   0.00 by Control Pump3
   01/01/1988: 01:00:00 Link Pump1 setting changed to   0.00 by Control Pump3
   01/01/1988: 01:00:30 Link Pump2 setting changed to   0.00 by Control Pump3
   01/01/1988: 01:00:30 Link Pump1 setting changed to   0.00 by Control Pump3
   01/01/1988: 01:01:00 Link Pump2 setting changed to   0.00 by Control Pump3
   01/01/1988: 01:01:00 Link Pump1 setting changed to   0.00 by Control Pump3
   01/01/1988: 01:01:30 Link Pump2 setting changed to   0.00 by Control Pump3
   01/01/1988: 01:01:30 Link Pump1 setting changed to   0.00 by Control Pump3
   01/01/1988: 01:02:00 Link Pump2 setting changed to   0.00 by Control Pump3
   01/01/1988: 01:02:00 Link Pump1 setting changed to   0.00 by Control Pump3
   01/01/1988: 01:02:30 Link Pump2 setting changed to   0.00 by Control Pump3
   01/01/1988: 01:02:30 Link Pump1 setting changed to   0.00 by Control Pump3
   01/01/1988: 01:03:00 Link Pump2 setting changed to   0.00 by Control Pump3
   01/01/1988: 01:03:00 Link Pump1 setting changed to   0.00 by Control Pump3
   01/01/1988: 01:03:30 Link Pump2 setting changed to   0.00 by Control Pump3
   01/01/1988: 01:03:30 Link Pump1 setting changed to   0.00 by Control Pump3
   01/01/1988: 01:04:00 Link Pump2 setting changed to   0.00 by Control Pump3
   01/01/1988: 01:04:00 Link Pump1 setting changed to   0.00 by Control Pump3
   01/01/1988: 01:04:30 Link Pump2 setting changed to   0.00 by Control Pump3
   01/01/1988: 01:04:30 Link Pump1 setting changed to   0.00 by Control Pump3
   01/01/1988: 01:05:00 Link Pump2 setting changed to   0.00 by Control Pump3
   01/01/1988: 01:05:00 Link Pump1 setting changed to   0.00 by Control Pump3
   01/01/1988: 01:05:30 Link Pump2 setting changed to   0.00 by Control Pump3
   01/01/1988: 01:05:30 Link Pump1 setting changed to   0.00 by Control Pump3
   01/01/1988: 01:06:00 Link Pump2 setting changed to   0.00 by Control Pump3
   01/01/1988: 01:06:00 Link Pump1 setting changed to   0.00 by Control Pump3
   01/01/1988: 01:06:30 Link Pump2 setting changed to   0.00 by Control Pump3
   01/01/1988: 01:06:30 Link Pump1 setting changed to   0.00 by Control Pump3
   01/01/1988: 01:07:00 Link Pump2 setting changed to   0.00 by Control Pump3
   01/01/1988: 01:07:00 Link Pump1 setting changed to   0.00 by Control Pump3
   01/01/1988: 01:07:30 Link Pump2 setting changed to   0.00 by Control Pump3
   01/01/1988: 01:07:30 Link Pump1 setting changed to   0.00 by Control Pump3
   01/01/1988: 01:08:00 Link Pump2 setting changed to   0.00 by Control Pump3
   01/01/1988: 01:08:00 Link Pump1 setting changed to   0.00 by Control Pump3
   01/01/1988: 01:08:30 Link Pump2 setting changed to   0.00 by Control Pump3
   01/01/1988: 01:08:30 Link Pump1 setting changed to   0.00 by Control Pump3
   01/01/1988: 01:09:00 Link Pump2 setting changed to   0.00 by Control Pump3
   01/01/1988: 01:09:00 Link Pump1 setting changed to   0.00 by Control Pump3
   01/01/1988: 01:09:30 Link Pump2 setting changed to   0.00 by Control Pump3
   01/01/1988: 01:09:30 Link Pump1 setting changed to   0.00 by Control Pump3
   01/01/1988: 01:10:00 Link Pump2 setting changed to   0.00 by Control Pump3
   01/01/1988: 01:10:00 Link Pump1 setting changed to   0.00 by Control Pump3
   01/01/1988: 01:10:30 Link Pump2 setting changed to   0.00 by Control Pump3
   01/01/1988: 01:10:30 Link Pump1 setting changed to   0.00 by Control Pump3
   01/01/1988: 01:11:00 Link Pump2 setting changed to   0.00 by Control Pump3
   01/01/1988: 01:11:00 Link Pump1 setting changed to   0.00 by Control Pump3
   01/01/1988: 01:11:30 Link Pump2 setting changed to   0.00 by Control Pump3
   01/01/1988: 01:11:30 Link Pump1 setting changed to   0.00 by Control Pump3
   01/01/1988: 01:12:00 Link Pump2 setting changed to   0.00 by Control Pump3
   01/01/1988: 01:12:00 Link Pump1 setting changed to   0.00 by Control Pump3
   01/01/1988: 01:12:30 Link Pump2 setting changed to   0.00 by Control Pump3
   01/01/1988: 01:12:30 Link Pump1 setting changed to   0.00 by Control Pump3
   01/01/1988: 01:13:00 Link Pump2 setting changed to   0.00 by Control Pump3
   01/01/1988: 01:13:00 Link Pump1 setting changed to   0.00 by Control Pump3
   01/01/1988: 01:13:30 Link Pump2 setting changed to   0.00 by Control Pump3
   01/01/1988: 01:13:30 Link Pump1 setting changed to   0.00 by Control Pump3
   01/01/1988: 01:14:00 Link Pump2 setting changed to   0.00 by Control Pump3
   01/01/1988: 01:14:00 Link Pump1 setting changed to   0.00 by Control Pump3
   01/01/1988: 01:14:30 Link Pump2 setting changed to   0.00 by Control Pump3
   01/01/1988: 01:14:30 Link Pump1 setting changed to   0.00 by Control Pump3
   01/01/1988: 01:15:00 Link Pump2 setting changed to   0.00 by Control Pump3
   01/01/1988: 01:15:00 Link Pump1 setting changed to   0.00 by Control Pump3
   01/01/1988: 01:15:30 Link Pump2 setting changed to   0.00 by Control Pump3
   01/01/1988: 01:15:30 Link Pump1 setting changed to   0.00 by Control Pump3
   01/01/1988: 01:16:00 Link Pump2 setting changed to   0.00 by Control Pump3
   01/01/1988: 01:16:00 Link Pump1 setting changed to   0.00 by Control Pump3
   01/01/1988: 01:16:30 Link Pump2 setting changed to   0.00 by Control Pump3
   01/01/1988: 01:16:30 Link Pump1 setting changed to   0.00 by Control Pump3
   01/01/1988: 01:17:00 Link Pump2 setting changed to   0.00 by Control Pump3
   01/01/1988: 01:17:00 Link Pump1 setting changed to   0.00 by Control Pump3
   01/01/1988: 01:17:30 Link Pump2 setting changed to   0.00 by Control Pump3
   01/01/1988: 01:17:30 Link Pump1 setting changed to   0.00 by Control Pump3
   01/01/1988: 01:18:00 Link Pump2 setting changed to   0.00 by Control Pump3
   01/01/1988: 01:18:00 Link Pump1 setting changed to   0.00 by Control Pump3
   01/01/1988: 01:18:30 Link Pump2 setting changed to   0.00 by Control Pump3
   01/01/1988: 01:18:30 Link Pump1 setting changed to   0.00 by Control Pump3
   01/01/1988: 01:19:00 Link Pump2 setting changed to   0.00 by Control Pump3
   01/01/1988: 01:19:00 Link Pump1 setting changed to   0.00 by Control Pump3
   01/01/1988: 01:19:30 Link Pump2 setting changed to   0.00 by Control Pump3
   01/01/1988: 01:19:30 Link Pump1 setting changed to   0.00 by Control Pump3
   01/01/1988: 01:20:00 Link Pump2 setting changed to   0.00 by Control Pump3
   01/01/1988: 01:20:00 Link Pump1 setting changed to   0.00 by Control Pump3
   01/01/1988: 01:20:30 Link Pump2 setting changed to   0.00 by Control Pump3
   01/01/1988: 01:20:30 Link Pump1 setting changed to   0.00 by Control Pump3
   01/01/1988: 01:21:00 Link Pump2 setting changed to   0.00 by Control Pump3
   01/01/1988: 01:21:00 Link Pump1 setting changed to   0.00 by Control Pump3
   01/01/1988: 01:21:30 Link Pump2 setting changed to   0.00 by Control Pump3
   01/01/1988: 01:21:30 Link Pump1 setting changed to   0.00 by Control Pump3
   01/01/1988: 01:22:00 Link Pump2 setting changed to   0.00 by Control Pump3
   01/01/1988: 01:22:00 Link Pump1 setting changed to   0.00 by Control Pump3
   01/01/1988: 01:22:30 Link Pump2 setting changed to   0.00 by Control Pump3
   01/01/1988: 01:22:30 Link Pump1 setting changed to   0.00 by Control Pump3
   01/01/1988: 01:23:00 Link Pump2 setting changed to   0.00 by Control Pump3
   01/01/1988: 01:23:00 Link Pump1 setting changed to   0.00 by Control Pump3
   01/01/1988: 01:23:30 Link Pump2 setting changed to   0.00 by Control Pump3
   01/01/1988: 01:23:30 Link Pump1 setting changed to   0.00 by Control Pump3
   01/01/1988: 01:24:00 Link Pump2 setting changed to   0.00 by Control Pump3
   01/01/1988: 01:24:00 Link Pump1 setting changed to   0.00 by Control Pump3
   01/01/1988: 01:24:30 Link Pump2 setting changed to   0.00 by Control Pump3
   01/01/1988: 01:24:30 Link Pump1 setting changed to   0.00 by Control Pump3
   01/01/1988: 01:25:00 Link Pump2 setting changed to   0.00 by Control Pump3
   01/01/1988: 01:25:00 Link Pump1 setting changed to   0.00 by Control Pump3
   01/01/1988: 01:25:30 Link Pump2 setting changed to   0.00 by Control Pump3
   01/01/1988: 01:25:30 Link Pump1 setting changed to   0.00 by Control Pump3
   01/01/1988: 01:26:00 Link Pump2 setting changed to   0.00 by Control Pump3
   01/01/1988: 01:26:00 Link Pump1 setting changed to   0.00 by Control Pump3
   01/01/1988: 01:26:30 Link Pump2 setting changed to   0.00 by Control Pump3
   01/01/1988: 01:26:30 Link Pump1 setting changed to   0.00 by Control Pump3
   01/01/1988: 01:27:00 Link Pump2 setting changed to   0.00 by Control Pump3
   01/01/1988: 01:27:00 Link Pump1 setting changed to   0.00 by Control Pump3
   01/01/1988: 01:27:30 Link Pump2 setting changed to   0.00 by Control Pump3
   01/01/1988: 01:27:30 Link Pump1 setting changed to   0.00 by Control Pump3
   01/01/1988: 01:28:00 Link Pump2 setting changed to   0.00 by Control Pump3
   01/01/1988: 01:28:00 Link Pump1 setting changed to   0.00 by Control Pump3
   01/01/1988: 01:28:30 Link Pump2 setting changed to   0.00 by Control Pump3
   01/01/1988: 01:28:30 Link Pump1 setting changed to   0.00 by Control Pump3
   01/01/1988: 01:29:00 Link Pump2 setting changed to   0.00 by Control Pump3
   01/01/1988: 01:29:00 Link Pump1 setting changed to   0.00 by Control Pump3
   01/01/1988: 01:29:30 Link Pump2 setting changed to   0.00 by Control Pump3
   01/01/1988: 01:29:30 Link Pump1 setting changed to   0.00 by Control Pump3
   01/01/1988: 01:30:00 Link Pump2 setting changed to   0.00 by Control Pump3
   01/01/1988: 01:30:00 Link Pump1 setting changed to   0.00 by Control Pump3
   01/01/1988: 01:30:30 Link Pump2 setting changed to   0.00 by Control Pump3
   01/01/1988: 01:30:30 Link Pump1 setting changed to   0.00 by Control Pump3
   01/01/1988: 01:31:00 Link Pump2 setting changed to   0.00 by Control Pump3
   01/01/1988: 01:31:00 Link Pump1 setting changed to   0.00 by Control Pump3
   01/01/1988: 01:31:30 Link Pump2 setting changed to   0.00 by Control Pump3
   01/01/1988: 01:31:30 Link Pump1 setting changed to   0.00 by Control Pump3
   01/01/1988: 01:32:00 Link Pump2 setting changed to   0.00 by Control Pump3
   01/01/1988: 01:32:00 Link Pump1 setting changed to   0.00 by Control Pump3
   01/01/1988: 01:32:30 Link Pump2 setting changed to   0.00 by Control Pump3
   01/01/1988: 01:32:30 Link Pump1 setting changed to   0.00 by Control Pump3
   01/01/1988: 01:33:00 Link Pump2 setting changed to   0.00 by Control Pump3
   01/01/1988: 01:33:00 Link Pump1 setting changed to   0.00 by Control Pump3
   01/01/1988: 01:33:30 Link Pump2 setting changed to   0.00 by Control Pump3
   01/01/1988: 01:33:30 Link Pump1 setting changed to   0.00 by Control Pump3
   01/01/1988: 01:34:00 Link Pump2 setting changed to   0.00 by Control Pump3
   01/01/1988: 01:34:00 Link Pump1 setting changed to   0.00 by Control Pump3
   01/01/1988: 01:34:30 Link Pump2 setting changed to   0.00 by Control Pump3
   01/01/1988: 01:34:30 Link Pump1 setting changed to   0.00 by Control Pump3
   01/01/1988: 01:35:00 Link Pump2 setting changed to   0.00 by Control Pump3
   01/01/1988: 01:35:00 Link Pump1 setting changed to   0.00 by Control Pump3
   01/01/1988: 01:35:30 Link Pump2 setting changed to   0.00 by Control Pump3
   01/01/1988: 01:35:30 Link Pump1 setting changed to   0.00 by Control Pump3
   01/01/1988: 01:36:00 Link Pump2 setting changed to   0.00 by Control Pump3
   01/01/1988: 01:36:00 Link Pump1 setting changed to   0.00 by Control Pump3
   01/01/1988: 01:36:30 Link Pump2 setting changed to   0.00 by Control Pump3
   01/01/1988: 01:36:30 Link Pump1 setting changed to   0.00 by Control Pump3
   01/01/1988: 01:37:00 Link Pump2 setting changed to   0.00 by Control Pump3
   01/01/1988: 01:37:00 Link Pump1 setting changed to   0.00 by Control Pump3
   01/01/1988: 01:37:30 Link Pump2 setting changed to   0.00 by Control Pump3
   01/01/1988: 01:37:30 Link Pump1 setting changed to   0.00 by Control Pump3
   01/01/1988: 01:38:00 Link Pump2 setting changed to   0.00 by Control Pump3
   01/01/1988: 01:38:00 Link Pump1 setting changed to   0.00 by Control Pump3
   01/01/1988: 01:38:30 Link Pump2 setting changed to   0.00 by Control Pump3
   01/01/1988: 01:38:30 Link Pump1 setting changed to   0.00 by Control Pump3
   01/01/1988: 01:39:00 Link Pump2 setting changed to   0.00 by Control Pump3
   01/01/1988: 01:39:00 Link Pump1 setting changed to   0.00 by Control Pump3
   01/01/1988: 01:39:30 Link Pump2 setting changed to   0.00 by Control Pump3
   01/01/1988: 01:39:30 Link Pump1 setting changed to   0.00 by Control Pump3
   01/01/1988: 01:40:00 Link Pump2 setting changed to   0.00 by Control Pump3
   01/01/1988: 01:40:00 Link Pump1 setting changed to   0.00 by Control Pump3
   01/01/1988: 01:40:30 Link Pump2 setting changed to   0.00 by Control Pump3
   01/01/1988: 01:40:30 Link Pump1 setting changed to   0.00 by Control Pump3
   01/01/1988: 01:41:00 Link Pump2 setting changed to   0.00 by Control Pump3
   01/01/1988: 01:41:00 Link Pump1 setting changed to   0.00 by Control Pump3
   01/01/1988: 01:41:30 Link Pump2 setting changed to   0.00 by Control Pump3
   01/01/1988: 01:41:30 Link Pump1 setting changed to   0.00 by Control Pump3
   01/01/1988: 01:42:00 Link Pump2 setting changed to   0.00 by Control Pump3
   01/01/1988: 01:42:00 Link Pump1 setting changed to   0.00 by Control Pump3
   01/01/1988: 01:42:30 Link Pump2 setting changed to   0.00 by Control Pump3
   01/01/1988: 01:42:30 Link Pump1 setting changed to   0.00 by Control Pump3
   01/01/1988: 01:43:00 Link Pump2 setting changed to   0.00 by Control Pump3
   01/01/1988: 01:43:00 Link Pump1 setting changed to   0.00 by Control Pump3
   01/01/1988: 01:43:30 Link Pump2 setting changed to   0.00 by Control Pump3
   01/01/1988: 01:43:30 Link Pump1 setting changed to   0.00 by Control Pump3
   01/01/1988: 01:44:00 Link Pump2 setting changed to   0.00 by Control Pump3
   01/01/1988: 01:44:00 Link Pump1 setting changed to   0.00 by Control Pump3
   01/01/1988: 01:44:30 Link Pump2 setting changed to   0.00 by Control Pump3
   01/01/1988: 01:44:30 Link Pump1 setting changed to   0.00 by Control Pump3
   01/01/1988: 01:45:00 Link Pump2 setting changed to   0.00 by Control Pump3
   01/01/1988: 01:45:00 Link Pump1 setting changed to   0.00 by Control Pump3
   01/01/1988: 01:45:30 Link Pump2 setting changed to   0.00 by Control Pump3
   01/01/1988: 01:45:30 Link Pump1 setting changed to   0.00 by Control Pump3
   01/01/1988: 01:46:00 Link Pump2 setting changed to   0.00 by Control Pump3
   01/01/1988: 01:46:00 Link Pump1 setting changed to   0.00 by Control Pump3
   01/01/1988: 01:46:30 Link Pump2 setting changed to   0.00 by Control Pump3
   01/01/1988: 01:46:30 Link Pump1 setting changed to   0.00 by Control Pump3
   01/01/1988: 01:47:00 Link Pump2 setting changed to   0.00 by Control Pump3
   01/01/1988: 01:47:00 Link Pump1 setting changed to   0.00 by Control Pump3
   01/01/1988: 01:47:30 Link Pump2 setting changed to   0.00 by Control Pump3
   01/01/1988: 01:47:30 Link Pump1 setting changed to   0.00 by Control Pump3
   01/01/1988: 01:48:00 Link Pump2 setting changed to   0.00 by Control Pump3
   01/01/1988: 01:48:00 Link Pump1 setting changed to   0.00 by Control Pump3
   01/01/1988: 01:48:30 Link Pump2 setting changed to   0.00 by Control Pump3
   01/01/1988: 01:48:30 Link Pump1 setting changed to   0.00 by Control Pump3
   01/01/1988: 01:49:00 Link Pump2 setting changed to   0.00 by Control Pump3
   01/01/1988: 01:49:00 Link Pump1 setting changed to   0.00 by Control Pump3
   01/01/1988: 01:49:30 Link Pump2 setting changed to   0.00 by Control Pump3
   01/01/1988: 01:49:30 Link Pump1 setting changed to   0.00 by Control Pump3
   01/01/1988: 01:50:00 Link Pump2 setting changed to   0.00 by Control Pump3
   01/01/1988: 01:50:00 Link Pump1 setting changed to   0.00 by Control Pump3
   01/01/1988: 01:50:30 Link Pump2 setting changed to   0.00 by Control Pump3
   01/01/1988: 01:50:30 Link Pump1 setting changed to   0.00 by Control Pump3
   01/01/1988: 01:51:00 Link Pump2 setting changed to   0.00 by Control Pump3
   01/01/1988: 01:51:00 Link Pump1 setting changed to   0.00 by Control Pump3
   01/01/1988: 01:51:30 Link Pump2 setting changed to   0.00 by Control Pump3
   01/01/1988: 01:51:30 Link Pump1 setting changed to   0.00 by Control Pump3
   01/01/1988: 01:52:00 Link Pump2 setting changed to   0.00 by Control Pump3
   01/01/1988: 01:52:00 Link Pump1 setting changed to   0.00 by Control Pump3
   01/01/1988: 01:52:30 Link Pump2 setting changed to   0.00 by Control Pump3
   01/01/1988: 01:52:30 Link Pump1 setting changed to   0.00 by Control Pump3
   01/01/1988: 01:53:00 Link Pump2 setting changed to   0.00 by Control Pump3
   01/01/1988: 01:53:00 Link Pump1 setting changed to   0.00 by Control Pump3
   01/01/1988: 01:53:30 Link Pump2 setting changed to   0.00 by Control Pump3
   01/01/1988: 01:53:30 Link Pump1 setting changed to   0.00 by Control Pump3
   01/01/1988: 01:54:00 Link Pump2 setting changed to   0.00 by Control Pump3
   01/01/1988: 01:54:00 Link Pump1 setting changed to   0.00 by Control Pump3
   01/01/1988: 01:54:30 Link Pump2 setting changed to   0.00 by Control Pump3
   01/01/1988: 01:54:30 Link Pump1 setting changed to   0.00 by Control Pump3
   01/01/1988: 01:55:00 Link Pump2 setting changed to   0.00 by Control Pump3
   01/01/1988: 01:55:00 Link Pump1 setting changed to   0.00 by Control Pump3
   01/01/1988: 01:55:30 Link Pump2 setting changed to   0.00 by Control Pump3
   01/01/1988: 01:55:30 Link Pump1 setting changed to   0.00 by Control Pump3
   01/01/1988: 01:56:00 Link Pump2 setting changed to   0.00 by Control Pump3
   01/01/1988: 01:56:00 Link Pump1 setting changed to   0.00 by Control Pump3
   01/01/1988: 01:56:30 Link Pump2 setting changed to   0.00 by Control Pump3
   01/01/1988: 01:56:30 Link Pump1 setting changed to   0.00 by Control Pump3
   01/01/1988: 01:57:00 Link Pump2 setting changed to   0.00 by Control Pump3
   01/01/1988: 01:57:00 Link Pump1 setting changed to   0.00 by Control Pump3
   01/01/1988: 01:57:30 Link Pump2 setting changed to   0.00 by Control Pump3
   01/01/1988: 01:57:30 Link Pump1 setting changed to   0.00 by Control Pump3
   01/01/1988: 01:58:00 Link Pump2 setting changed to   0.00 by Control Pump3
   01/01/1988: 01:58:00 Link Pump1 setting changed to   0.00 by Control Pump3
   01/01/1988: 01:58:30 Link Pump2 setting changed to   0.00 by Control Pump3
   01/01/1988: 01:58:30 Link Pump1 setting changed to   0.00 by Control Pump3
   01/01/1988: 01:59:00 Link Pump2 setting changed to   0.00 by Control Pump3
   01/01/1988: 01:59:00 Link Pump1 setting changed to   0.00 by Control Pump3
   01/01/1988: 01:59:30 Link Pump2 setting changed to   0.00 by Control Pump3
   01/01/1988: 01:59:30 Link Pump1 setting changed to   0.00 by Control Pump3
   01/01/1988: 02:00:00 Link Pump2 setting changed to   0.00 by Control Pump3
   01/01/1988: 02:00:00 Link Pump1 setting changed to   0.00 by Control Pump3
   01/01/1988: 02:00:30 Link Pump2 setting changed to   0.00 by Control Pump3
   01/01/1988: 02:00:30 Link Pump1 setting changed to   0.00 by Control Pump3
   01/01/1988: 02:01:00 Link Pump2 setting changed to   0.00 by Control Pump3
   01/01/1988: 02:01:00 Link Pump1 setting changed to   0.00 by Control Pump3
   01/01/1988: 02:01:30 Link Pump2 setting changed to   0.00 by Control Pump3
   01/01/1988: 02:01:30 Link Pump1 setting changed to   0.00 by Control Pump3
   01/01/1988: 02:02:00 Link Pump2 setting changed to   0.00 by Control Pump3
   01/01/1988: 02:02:00 Link Pump1 setting changed to   0.00 by Control Pump3
   01/01/1988: 02:02:30 Link Pump2 setting changed to   0.00 by Control Pump3
   01/01/1988: 02:02:30 Link Pump1 setting changed to   0.00 by Control Pump3
   01/01/1988: 02:03:00 Link Pump2 setting changed to   0.00 by Control Pump3
   01/01/1988: 02:03:00 Link Pump1 setting changed to   0.00 by Control Pump3
   01/01/1988: 02:03:30 Link Pump2 setting changed to   0.00 by Control Pump3
   01/01/1988: 02:03:30 Link Pump1 setting changed to   0.00 by Control Pump3
   01/01/1988: 02:04:00 Link Pump2 setting changed to   0.00 by Control Pump3
   01/01/1988: 02:04:00 Link Pump1 setting changed to   0.00 by Control Pump3
   01/01/1988: 02:04:30 Link Pump2 setting changed to   0.00 by Control Pump3
   01/01/1988: 02:04:30 Link Pump1 setting changed to   0.00 by Control Pump3
   01/01/1988: 02:05:00 Link Pump2 setting changed to   0.00 by Control Pump3
   01/01/1988: 02:05:00 Link Pump1 setting changed to   0.00 by Control Pump3
   01/01/1988: 02:05:30 Link Pump2 setting changed to   0.00 by Control Pump3
   01/01/1988: 02:05:30 Link Pump1 setting changed to   0.00 by Control Pump3
   01/01/1988: 02:06:00 Link Pump2 setting changed to   0.00 by Control Pump3
   01/01/1988: 02:06:00 Link Pump1 setting changed to   0.00 by Control Pump3
   01/01/1988: 02:06:30 Link Pump2 setting changed to   0.00 by Control Pump3
   01/01/1988: 02:06:30 Link Pump1 setting changed to   0.00 by Control Pump3
   01/01/1988: 02:07:00 Link Pump2 setting changed to   0.00 by Control Pump3
   01/01/1988: 02:07:00 Link Pump1 setting changed to   0.00 by Control Pump3
   01/01/1988: 02:07:30 Link Pump2 setting changed to   0.00 by Control Pump3
   01/01/1988: 02:07:30 Link Pump1 setting changed to   0.00 by Control Pump3
   01/01/1988: 02:08:00 Link Pump2 setting changed to   0.00 by Control Pump3
   01/01/1988: 02:08:00 Link Pump1 setting changed to   0.00 by Control Pump3
   01/01/1988: 02:08:30 Link Pump2 setting changed to   0.00 by Control Pump3
   01/01/1988: 02:08:30 Link Pump1 setting changed to   0.00 by Control Pump3
   01/01/1988: 02:09:00 Link Pump2 setting changed to   0.00 by Control Pump3
   01/01/1988: 02:09:00 Link Pump1 setting changed to   0.00 by Control Pump3
   01/01/1988: 02:09:30 Link Pump2 setting changed to   0.00 by Control Pump3
   01/01/1988: 02:09:30 Link Pump1 setting changed to   0.00 by Control Pump3
   01/01/1988: 02:10:00 Link Pump2 setting changed to   0.00 by Control Pump3
   01/01/1988: 02:10:00 Link Pump1 setting changed to   0.00 by Control Pump3
   01/01/1988: 02:10:30 Link Pump2 setting changed to   0.00 by Control Pump3
   01/01/1988: 02:10:30 Link Pump1 setting changed to   0.00 by Control Pump3
   01/01/1988: 02:11:00 Link Pump2 setting changed to   0.00 by Control Pump3
   01/01/1988: 02:11:00 Link Pump1 setting changed to   0.00 by Control Pump3
   01/01/1988: 02:11:30 Link Pump2 setting changed to   0.00 by Control Pump3
   01/01/1988: 02:11:30 Link Pump1 setting changed to   0.00 by Control Pump3
   01/01/1988: 02:12:00 Link Pump2 setting changed to   0.00 by Control Pump3
   01/01/1988: 02:12:00 Link Pump1 setting changed to   0.00 by Control Pump3
   01/01/1988: 02:12:30 Link Pump2 setting changed to   0.00 by Control Pump3
   01/01/1988: 02:12:30 Link Pump1 setting changed to   0.00 by Control Pump3
   01/01/1988: 02:13:00 Link Pump2 setting changed to   0.00 by Control Pump3
   01/01/1988: 02:13:00 Link Pump1 setting changed to   0.00 by Control Pump3
   01/01/1988: 02:13:30 Link Pump2 setting changed to   0.00 by Control Pump3
   01/01/1988: 02:13:30 Link Pump1 setting changed to   0.00 by Control Pump3
   01/01/1988: 02:14:00 Link Pump2 setting changed to   0.00 by Control Pump3
   01/01/1988: 02:14:00 Link Pump1 setting changed to   0.00 by Control Pump3
   01/01/1988: 02:14:30 Link Pump2 setting changed to   0.00 by Control Pump3
   01/01/1988: 02:14:30 Link Pump1 setting changed to   0.00 by Control Pump3
   01/01/1988: 02:15:00 Link Pump2 setting changed to   0.00 by Control Pump3
   01/01/1988: 02:15:00 Link Pump1 setting changed to   0.00 by Control Pump3
   01/01/1988: 02:15:30 Link Pump2 setting changed to   0.00 by Control Pump3
   01/01/1988: 02:15:30 Link Pump1 setting changed to   0.00 by Control Pump3
   01/01/1988: 02:16:00 Link Pump2 setting changed to   0.00 by Control Pump3
   01/01/1988: 02:16:00 Link Pump1 setting changed to   0.00 by Control Pump3
   01/01/1988: 02:16:30 Link Pump2 setting changed to   0.00 by Control Pump3
   01/01/1988: 02:16:30 Link Pump1 setting changed to   0.00 by Control Pump3
   01/01/1988: 02:17:00 Link Pump2 setting changed to   0.00 by Control Pump3
   01/01/1988: 02:17:00 Link Pump1 setting changed to   0.00 by Control Pump3
   01/01/1988: 02:17:30 Link Pump2 setting changed to   0.00 by Control Pump3
   01/01/1988: 02:17:30 Link Pump1 setting changed to   0.00 by Control Pump3
   01/01/1988: 02:18:00 Link Pump2 setting changed to   0.00 by Control Pump3
   01/01/1988: 02:18:00 Link Pump1 setting changed to   0.00 by Control Pump3
   01/01/1988: 02:18:30 Link Pump2 setting changed to   0.00 by Control Pump3
   01/01/1988: 02:18:30 Link Pump1 setting changed to   0.00 by Control Pump3
   01/01/1988: 02:19:00 Link Pump2 setting changed to   0.00 by Control Pump3
   01/01/1988: 02:19:00 Link Pump1 setting changed to   0.00 by Control Pump3
   01/01/1988: 02:19:30 Link Pump2 setting changed to   0.00 by Control Pump3
   01/01/1988: 02:19:30 Link Pump1 setting changed to   0.00 by Control Pump3
   01/01/1988: 02:20:00 Link Pump2 setting changed to   0.00 by Control Pump3
   01/01/1988: 02:20:00 Link Pump1 setting changed to   0.00 by Control Pump3
   01/01/1988: 02:20:30 Link Pump2 setting changed to   0.00 by Control Pump3
   01/01/1988: 02:20:30 Link Pump1 setting changed to   0.00 by Control Pump3
   01/01/1988: 02:21:00 Link Pump2 setting changed to   0.00 by Control Pump3
   01/01/1988: 02:21:00 Link Pump1 setting changed to   0.00 by Control Pump3
   01/01/1988: 02:21:30 Link Pump2 setting changed to   0.00 by Control Pump3
   01/01/1988: 02:21:30 Link Pump1 setting changed to   0.00 by Control Pump3
   01/01/1988: 02:22:00 Link Pump2 setting changed to   0.00 by Control Pump3
   01/01/1988: 02:22:00 Link Pump1 setting changed to   0.00 by Control Pump3
   01/01/1988: 02:22:30 Link Pump2 setting changed to   0.00 by Control Pump3
   01/01/1988: 02:22:30 Link Pump1 setting changed to   0.00 by Control Pump3
   01/01/1988: 02:23:00 Link Pump2 setting changed to   0.00 by Control Pump3
   01/01/1988: 02:23:00 Link Pump1 setting changed to   0.00 by Control Pump3
   01/01/1988: 02:23:30 Link Pump2 setting changed to   0.00 by Control Pump3
   01/01/1988: 02:23:30 Link Pump1 setting changed to   0.00 by Control Pump3
   01/01/1988: 02:24:00 Link Pump2 setting changed to   0.00 by Control Pump3
   01/01/1988: 02:24:00 Link Pump1 setting changed to   0.00 by Control Pump3
   01/01/1988: 02:24:30 Link Pump2 setting changed to   0.00 by Control Pump3
   01/01/1988: 02:24:30 Link Pump1 setting changed to   0.00 by Control Pump3
   01/01/1988: 02:25:00 Link Pump2 setting changed to   0.00 by Control Pump3
   01/01/1988: 02:25:00 Link Pump1 setting changed to   0.00 by Control Pump3
   01/01/1988: 02:25:30 Link Pump2 setting changed to   0.00 by Control Pump3
   01/01/1988: 02:25:30 Link Pump1 setting changed to   0.00 by Control Pump3
   01/01/1988: 02:26:00 Link Pump2 setting changed to   0.00 by Control Pump3
   01/01/1988: 02:26:00 Link Pump1 setting changed to   0.00 by Control Pump3
   01/01/1988: 02:26:30 Link Pump2 setting changed to   0.00 by Control Pump3
   01/01/1988: 02:26:30 Link Pump1 setting changed to   0.00 by Control Pump3
   01/01/1988: 02:27:00 Link Pump2 setting changed to   0.00 by Control Pump3
   01/01/1988: 02:27:00 Link Pump1 setting changed to   0.00 by Control Pump3
   01/01/1988: 02:27:30 Link Pump2 setting changed to   0.00 by Control Pump3
   01/01/1988: 02:27:30 Link Pump1 setting changed to   0.00 by Control Pump3
   01/01/1988: 02:28:00 Link Pump2 setting changed to   0.00 by Control Pump3
   01/01/1988: 02:28:00 Link Pump1 setting changed to   0.00 by Control Pump3
   01/01/1988: 02:28:30 Link Pump2 setting changed to   0.00 by Control Pump3
   01/01/1988: 02:28:30 Link Pump1 setting changed to   0.00 by Control Pump3
   01/01/1988: 02:29:00 Link Pump2 setting changed to   0.00 by Control Pump3
   01/01/1988: 02:29:00 Link Pump1 setting changed to   0.00 by Control Pump3
   01/01/1988: 02:29:30 Link Pump2 setting changed to   0.00 by Control Pump3
   01/01/1988: 02:29:30 Link Pump1 setting changed to   0.00 by Control Pump3
   01/01/1988: 02:30:00 Link Pump2 setting changed to   0.00 by Control Pump3
   01/01/1988: 02:30:00 Link Pump1 setting changed to   0.00 by Control Pump3
   01/01/1988: 02:30:30 Link Pump2 setting changed to   0.00 by Control Pump3
   01/01/1988: 02:30:30 Link Pump1 setting changed to   0.00 by Control Pump3
   01/01/1988: 02:31:00 Link Pump2 setting changed to   0.00 by Control Pump3
   01/01/1988: 02:31:00 Link Pump1 setting changed to   0.00 by Control Pump3
   01/01/1988: 02:31:30 Link Pump2 setting changed to   0.00 by Control Pump3
   01/01/1988: 02:31:30 Link Pump1 setting changed to   0.00 by Control Pump3
   01/01/1988: 02:32:00 Link Pump2 setting changed to   0.00 by Control Pump3
   01/01/1988: 02:32:00 Link Pump1 setting changed to   0.00 by Control Pump3
   01/01/1988: 02:32:30 Link Pump2 setting changed to   0.00 by Control Pump3
   01/01/1988: 02:32:30 Link Pump1 setting changed to   0.00 by Control Pump3
   01/01/1988: 02:33:00 Link Pump2 setting changed to   0.00 by Control Pump3
   01/01/1988: 02:33:00 Link Pump1 setting changed to   0.00 by Control Pump3
   01/01/1988: 02:33:30 Link Pump2 setting changed to   0.00 by Control Pump3
   01/01/1988: 02:33:30 Link Pump1 setting changed to   0.00 by Control Pump3
   01/01/1988: 02:34:00 Link Pump2 setting changed to   0.00 by Control Pump3
   01/01/1988: 02:34:00 Link Pump1 setting changed to   0.00 by Control Pump3
   01/01/1988: 02:34:30 Link Pump2 setting changed to   0.00 by Control Pump3
   01/01/1988: 02:34:30 Link Pump1 setting changed to   0.00 by Control Pump3
   01/01/1988: 02:35:00 Link Pump2 setting changed to   0.00 by Control Pump3
   01/01/1988: 02:35:00 Link Pump1 setting changed to   0.00 by Control Pump3
   01/01/1988: 02:35:30 Link Pump2 setting changed to   0.00 by Control Pump3
   01/01/1988: 02:35:30 Link Pump1 setting changed to   0.00 by Control Pump3
   01/01/1988: 02:36:00 Link Pump2 setting changed to   0.00 by Control Pump3
   01/01/1988: 02:36:00 Link Pump1 setting changed to   0.00 by Control Pump3
   01/01/1988: 02:36:30 Link Pump2 setting changed to   0.00 by Control Pump3
   01/01/1988: 02:36:30 Link Pump1 setting changed to   0.00 by Control Pump3
   01/01/1988: 02:37:00 Link Pump2 setting changed to   0.00 by Control Pump3
   01/01/1988: 02:37:00 Link Pump1 setting changed to   0.00 by Control Pump3
   01/01/1988: 02:37:30 Link Pump2 setting changed to   0.00 by Control Pump3
   01/01/1988: 02:37:30 Link Pump1 setting changed to   0.00 by Control Pump3
   01/01/1988: 02:38:00 Link Pump2 setting changed to   0.00 by Control Pump3
   01/01/1988: 02:38:00 Link Pump1 setting changed to   0.00 by Control Pump3
   01/01/1988: 02:38:30 Link Pump2 setting changed to   0.00 by Control Pump3
   01/01/1988: 02:38:30 Link Pump1 setting changed to   0.00 by Control Pump3
   01/01/1988: 02:39:00 Link Pump2 setting changed to   0.00 by Control Pump3
   01/01/1988: 02:39:00 Link Pump1 setting changed to   0.00 by Control Pump3
   01/01/1988: 02:39:30 Link Pump2 setting changed to   0.00 by Control Pump3
   01/01/1988: 02:39:30 Link Pump1 setting changed to   0.00 by Control Pump3
   01/01/1988: 02:40:00 Link Pump2 setting changed to   0.00 by Control Pump3
   01/01/1988: 02:40:00 Link Pump1 setting changed to   0.00 by Control Pump3
   01/01/1988: 02:40:30 Link Pump2 setting changed to   0.00 by Control Pump3
   01/01/1988: 02:40:30 Link Pump1 setting changed to   0.00 by Control Pump3
   01/01/1988: 02:41:00 Link Pump2 setting changed to   0.00 by Control Pump3
   01/01/1988: 02:41:00 Link Pump1 setting changed to   0.00 by Control Pump3
   01/01/1988: 02:41:30 Link Pump2 setting changed to   0.00 by Control Pump3
   01/01/1988: 02:41:30 Link Pump1 setting changed to   0.00 by Control Pump3
   01/01/1988: 02:42:00 Link Pump2 setting changed to   0.00 by Control Pump3
   01/01/1988: 02:42:00 Link Pump1 setting changed to   0.00 by Control Pump3
   01/01/1988: 02:42:30 Link Pump2 setting changed to   0.00 by Control Pump3
   01/01/1988: 02:42:30 Link Pump1 setting changed to   0.00 by Control Pump3
   01/01/1988: 02:43:00 Link Pump2 setting changed to   0.00 by Control Pump3
   01/01/1988: 02:43:00 Link Pump1 setting changed to   0.00 by Control Pump3
   01/01/1988: 02:43:30 Link Pump2 setting changed to   0.00 by Control Pump3
   01/01/1988: 02:43:30 Link Pump1 setting changed to   0.00 by Control Pump3
   01/01/1988: 02:44:00 Link Pump2 setting changed to   0.00 by Control Pump3
   01/01/1988: 02:44:00 Link Pump1 setting changed to   0.00 by Control Pump3
   01/01/1988: 02:44:30 Link Pump2 setting changed to   0.00 by Control Pump3
   01/01/1988: 02:44:30 Link Pump1 setting changed to   0.00 by Control Pump3
   01/01/1988: 02:45:00 Link Pump2 setting changed to   0.00 by Control Pump3
   01/01/1988: 02:45:00 Link Pump1 setting changed to   0.00 by Control Pump3
   01/01/1988: 02:45:30 Link Pump2 setting changed to   0.00 by Control Pump3
   01/01/1988: 02:45:30 Link Pump1 setting changed to   0.00 by Control Pump3
   01/01/1988: 02:46:00 Link Pump2 setting changed to   0.00 by Control Pump3
   01/01/1988: 02:46:00 Link Pump1 setting changed to   0.00 by Control Pump3
   01/01/1988: 02:46:30 Link Pump2 setting changed to   0.00 by Control Pump3
   01/01/1988: 02:46:30 Link Pump1 setting changed to   0.00 by Control Pump3
   01/01/1988: 02:47:00 Link Pump2 setting changed to   0.00 by Control Pump3
   01/01/1988: 02:47:00 Link Pump1 setting changed to   0.00 by Control Pump3
   01/01/1988: 02:47:30 Link Pump2 setting changed to   0.00 by Control Pump3
   01/01/1988: 02:47:30 Link Pump1 setting changed to   0.00 by Control Pump3
   01/01/1988: 02:48:00 Link Pump2 setting changed to   0.00 by Control Pump3
   01/01/1988: 02:48:00 Link Pump1 setting changed to   0.00 by Control Pump3
   01/01/1988: 02:48:30 Link Pump2 setting changed to   0.00 by Control Pump3
   01/01/1988: 02:48:30 Link Pump1 setting changed to   0.00 by Control Pump3
   01/01/1988: 02:49:00 Link Pump2 setting changed to   0.00 by Control Pump3
   01/01/1988: 02:49:00 Link Pump1 setting changed to   0.00 by Control Pump3
   01/01/1988: 02:49:30 Link Pump2 setting changed to   0.00 by Control Pump3
   01/01/1988: 02:49:30 Link Pump1 setting changed to   0.00 by Control Pump3
   01/01/1988: 02:50:00 Link Pump2 setting changed to   0.00 by Control Pump3
   01/01/1988: 02:50:00 Link Pump1 setting changed to   0.00 by Control Pump3
   01/01/1988: 02:50:30 Link Pump2 setting changed to   0.00 by Control Pump3
   01/01/1988: 02:50:30 Link Pump1 setting changed to   0.00 by Control Pump3
   01/01/1988: 02:51:00 Link Pump2 setting changed to   0.00 by Control Pump3
   01/01/1988: 02:51:00 Link Pump1 setting changed to   0.00 by Control Pump3
   01/01/1988: 02:51:30 Link Pump2 setting changed to   0.00 by Control Pump3
   01/01/1988: 02:51:30 Link Pump1 setting changed to   0.00 by Control Pump3
   01/01/1988: 02:52:00 Link Pump2 setting changed to   0.00 by Control Pump3
   01/01/1988: 02:52:00 Link Pump1 setting changed to   0.00 by Control Pump3
   01/01/1988: 02:52:30 Link Pump2 setting changed to   0.00 by Control Pump3
   01/01/1988: 02:52:30 Link Pump1 setting changed to   0.00 by Control Pump3
   01/01/1988: 02:53:00 Link Pump2 setting changed to   0.00 by Control Pump3
   01/01/1988: 02:53:00 Link Pump1 setting changed to   0.00 by Control Pump3
   01/01/1988: 02:53:30 Link Pump2 setting changed to   0.00 by Control Pump3
   01/01/1988: 02:53:30 Link Pump1 setting changed to   0.00 by Control Pump3
   01/01/1988: 02:54:00 Link Pump2 setting changed to   0.00 by Control Pump3
   01/01/1988: 02:54:00 Link Pump1 setting changed to   0.00 by Control Pump3
   01/01/1988: 02:54:30 Link Pump2 setting changed to   0.00 by Control Pump3
   01/01/1988: 02:54:30 Link Pump1 setting changed to   0.00 by Control Pump3
   01/01/1988: 02:55:00 Link Pump2 setting changed to   0.00 by Control Pump3
   01/01/1988: 02:55:00 Link Pump1 setting changed to   0.00 by Control Pump3
   01/01/1988: 02:55:30 Link Pump2 setting changed to   0.00 by Control Pump3
   01/01/1988: 02:55:30 Link Pump1 setting changed to   0.00 by Control Pump3
   01/01/1988: 02:56:00 Link Pump2 setting changed to   0.00 by Control Pump3
   01/01/1988: 02:56:00 Link Pump1 setting changed to   0.00 by Control Pump3
   01/01/1988: 02:56:30 Link Pump2 setting changed to   0.00 by Control Pump3
   01/01/1988: 02:56:30 Link Pump1 setting changed to   0.00 by Control Pump3
   01/01/1988: 02:57:00 Link Pump2 setting changed to   0.00 by Control Pump3
   01/01/1988: 02:57:00 Link Pump1 setting changed to   0.00 by Control Pump3
   01/01/1988: 02:57:30 Link Pump2 setting changed to   0.00 by Control Pump3
   01/01/1988: 02:57:30 Link Pump1 setting changed to   0.00 by Control Pump3
   01/01/1988: 02:58:00 Link Pump2 setting changed to   0.00 by Control Pump3
   01/01/1988: 02:58:00 Link Pump1 setting changed to   0.00 by Control Pump3
   01/01/1988: 02:58:30 Link Pump2 setting changed to   0.00 by Control Pump3
   01/01/1988: 02:58:30 Link Pump1 setting changed to   0.00 by Control Pump3
   01/01/1988: 02:59:00 Link Pump2 setting changed to   0.00 by Control Pump3
   01/01/1988: 02:59:00 Link Pump1 setting changed to   0.00 by Control Pump3
   01/01/1988: 02:59:30 Link Pump2 setting changed to   0.00 by Control Pump3
   01/01/1988: 02:59:30 Link Pump1 setting changed to   0.00 by Control Pump3
   01/01/1988: 03:00:00 Link Pump2 setting changed to   0.00 by Control Pump3
   01/01/1988: 03:00:00 Link Pump1 setting changed to   0.00 by Control Pump3
   01/01/1988: 03:00:30 Link Pump2 setting changed to   0.00 by Control Pump3
   01/01/1988: 03:00:30 Link Pump1 setting changed to   0.00 by Control Pump3
   01/01/1988: 03:01:00 Link Pump2 setting changed to   0.00 by Control Pump3
   01/01/1988: 03:01:00 Link Pump1 setting changed to   0.00 by Control Pump3
   01/01/1988: 03:01:30 Link Pump2 setting changed to   0.00 by Control Pump3
   01/01/1988: 03:01:30 Link Pump1 setting changed to   0.00 by Control Pump3
   01/01/1988: 03:02:00 Link Pump2 setting changed to   0.00 by Control Pump3
   01/01/1988: 03:02:00 Link Pump1 setting changed to   0.00 by Control Pump3
   01/01/1988: 03:02:30 Link Pump2 setting changed to   0.00 by Control Pump3
   01/01/1988: 03:02:30 Link Pump1 setting changed to   0.00 by Control Pump3
   01/01/1988: 03:03:00 Link Pump2 setting changed to   0.00 by Control Pump3
   01/01/1988: 03:03:00 Link Pump1 setting changed to   0.00 by Control Pump3
   01/01/1988: 03:03:30 Link Pump2 setting changed to   0.00 by Control Pump3
   01/01/1988: 03:03:30 Link Pump1 setting changed to   0.00 by Control Pump3
   01/01/1988: 03:04:00 Link Pump2 setting changed to   0.00 by Control Pump3
   01/01/1988: 03:04:00 Link Pump1 setting changed to   0.00 by Control Pump3
   01/01/1988: 03:04:30 Link Pump2 setting changed to   0.00 by Control Pump3
   01/01/1988: 03:04:30 Link Pump1 setting changed to   0.00 by Control Pump3
   01/01/1988: 03:05:00 Link Pump2 setting changed to   0.00 by Control Pump3
   01/01/1988: 03:05:00 Link Pump1 setting changed to   0.00 by Control Pump3
   01/01/1988: 03:05:30 Link Pump2 setting changed to   0.00 by Control Pump3
   01/01/1988: 03:05:30 Link Pump1 setting changed to   0.00 by Control Pump3
   01/01/1988: 03:06:00 Link Pump2 setting changed to   0.00 by Control Pump3
   01/01/1988: 03:06:00 Link Pump1 setting changed to   0.00 by Control Pump3
   01/01/1988: 03:06:30 Link Pump2 setting changed to   0.00 by Control Pump3
   01/01/1988: 03:06:30 Link Pump1 setting changed to   0.00 by Control Pump3
   01/01/1988: 03:07:00 Link Pump2 setting changed to   0.00 by Control Pump3
   01/01/1988: 03:07:00 Link Pump1 setting changed to   0.00 by Control Pump3
   01/01/1988: 03:07:30 Link Pump2 setting changed to   0.00 by Control Pump3
   01/01/1988: 03:07:30 Link Pump1 setting changed to   0.00 by Control Pump3
   01/01/1988: 03:08:00 Link Pump2 setting changed to   0.00 by Control Pump3
   01/01/1988: 03:08:00 Link Pump1 setting changed to   0.00 by Control Pump3
   01/01/1988: 03:08:30 Link Pump2 setting changed to   0.00 by Control Pump3
   01/01/1988: 03:08:30 Link Pump1 setting changed to   0.00 by Control Pump3
   01/01/1988: 03:09:00 Link Pump2 setting changed to   0.00 by Control Pump3
   01/01/1988: 03:09:00 Link Pump1 setting changed to   0.00 by Control Pump3
   01/01/1988: 03:09:30 Link Pump2 setting changed to   0.00 by Control Pump3
   01/01/1988: 03:09:30 Link Pump1 setting changed to   0.00 by Control Pump3
   01/01/1988: 03:10:00 Link Pump2 setting changed to   0.00 by Control Pump3
   01/01/1988: 03:10:00 Link Pump1 setting changed to   0.00 by Control Pump3
   01/01/1988: 03:10:30 Link Pump2 setting changed to   0.00 by Control Pump3
   01/01/1988: 03:10:30 Link Pump1 setting changed to   0.00 by Control Pump3
   01/01/1988: 03:11:00 Link Pump2 setting changed to   0.00 by Control Pump3
   01/01/1988: 03:11:00 Link Pump1 setting changed to   0.00 by Control Pump3
   01/01/1988: 03:11:30 Link Pump2 setting changed to   0.00 by Control Pump3
   01/01/1988: 03:11:30 Link Pump1 setting changed to   0.00 by Control Pump3
   01/01/1988: 03:12:00 Link Pump2 setting changed to   0.00 by Control Pump3
   01/01/1988: 03:12:00 Link Pump1 setting changed to   0.00 by Control Pump3
   01/01/1988: 03:12:30 Link Pump2 setting changed to   0.00 by Control Pump3
   01/01/1988: 03:12:30 Link Pump1 setting changed to   0.00 by Control Pump3
   01/01/1988: 03:13:00 Link Pump2 setting changed to   0.00 by Control Pump3
   01/01/1988: 03:13:00 Link Pump1 setting changed to   0.00 by Control Pump3
   01/01/1988: 03:13:30 Link Pump2 setting changed to   0.00 by Control Pump3
   01/01/1988: 03:13:30 Link Pump1 setting changed to   0.00 by Control Pump3
   01/01/1988: 03:14:00 Link Pump2 setting changed to   0.00 by Control Pump3
   01/01/1988: 03:14:00 Link Pump1 setting changed to   0.00 by Control Pump3
   01/01/1988: 03:14:30 Link Pump2 setting changed to   0.00 by Control Pump3
   01/01/1988: 03:14:30 Link Pump1 setting changed to   0.00 by Control Pump3
   01/01/1988: 03:15:00 Link Pump2 setting changed to   0.00 by Control Pump3
   01/01/1988: 03:15:00 Link Pump1 setting changed to   0.00 by Control Pump3
   01/01/1988: 03:15:30 Link Pump2 setting changed to   0.00 by Control Pump3
   01/01/1988: 03:15:30 Link Pump1 setting changed to   0.00 by Control Pump3
   01/01/1988: 03:16:00 Link Pump2 setting changed to   0.00 by Control Pump3
   01/01/1988: 03:16:00 Link Pump1 setting changed to   0.00 by Control Pump3
   01/01/1988: 03:16:30 Link Pump3 setting changed to   0.00 by Control Pump2
   01/01/1988: 03:16:30 Link Pump1 setting changed to   0.00 by Control Pump2
   01/01/1988: 03:17:00 Link Pump1 setting changed to   0.00 by Control Pump2
   01/01/1988: 03:17:30 Link Pump1 setting changed to   0.00 by Control Pump2
   01/01/1988: 03:18:00 Link Pump1 setting changed to   0.00 by Control Pump2
   01/01/1988: 03:18:30 Link Pump1 setting changed to   0.00 by Control Pump2
   01/01/1988: 03:19:00 Link Pump1 setting changed to   0.00 by Control Pump2
   01/01/1988: 03:19:30 Link Pump1 setting changed to   0.00 by Control Pump2
   01/01/1988: 03:20:00 Link Pump1 setting changed to   0.00 by Control Pump2
   01/01/1988: 03:20:30 Link Pump1 setting changed to   0.00 by Control Pump2
   01/01/1988: 03:21:00 Link Pump1 setting changed to   0.00 by Control Pump2
   01/01/1988: 03:21:30 Link Pump1 setting changed to   0.00 by Control Pump2
   01/01/1988: 03:22:00 Link Pump1 setting changed to   0.00 by Control Pump2
   01/01/1988: 03:22:30 Link Pump1 setting changed to   0.00 by Control Pump2
   01/01/1988: 03:23:00 Link Pump1 setting changed to   0.00 by Control Pump2
   01/01/1988: 03:23:30 Link Pump1 setting changed to   0.00 by Control Pump2
   01/01/1988: 03:24:00 Link Pump1 setting changed to   0.00 by Control Pump2
   01/01/1988: 03:24:30 Link Pump1 setting changed to   0.00 by Control Pump2
   01/01/1988: 03:25:00 Link Pump1 setting changed to   0.00 by Control Pump2
   01/01/1988: 03:25:30 Link Pump1 setting changed to   0.00 by Control Pump2
   01/01/1988: 03:26:00 Link Pump1 setting changed to   0.00 by Control Pump2
   01/01/1988: 03:26:30 Link Pump1 setting changed to   0.00 by Control Pump2
   01/01/1988: 03:27:00 Link Pump1 setting changed to   0.00 by Control Pump2
   01/01/1988: 03:27:30 Link Pump1 setting changed to   0.00 by Control Pump2
   01/01/1988: 03:28:00 Link Pump1 setting changed to   0.00 by Control Pump2
   01/01/1988: 03:28:30 Link Pump1 setting changed to   0.00 by Control Pump2
   01/01/1988: 03:29:00 Link Pump1 setting changed to   0.00 by Control Pump2
   01/01/1988: 03:29:30 Link Pump1 setting changed to   0.00 by Control Pump2
   01/01/1988: 03:30:00 Link Pump1 setting changed to   0.00 by Control Pump2
   01/01/1988: 03:30:30 Link Pump1 setting changed to   0.00 by Control Pump2
   01/01/1988: 03:31:00 Link Pump1 setting changed to   0.00 by Control Pump2
   01/01/1988: 03:31:30 Link Pump1 setting changed to   0.00 by Control Pump2
   01/01/1988: 03:32:00 Link Pump1 setting changed to   0.00 by Control Pump2
   01/01/1988: 03:32:30 Link Pump1 setting changed to   0.00 by Control Pump2
   01/01/1988: 03:33:00 Link Pump1 setting changed to   0.00 by Control Pump2
   01/01/1988: 03:33:30 Link Pump2 setting changed to   0.00 by Control Pump1
   01/01/1988: 03:34:00 Link Pump2 setting changed to   0.00 by Control Pump1
   01/01/1988: 03:34:30 Link Pump2 setting changed to   0.00 by Control Pump1
   01/01/1988: 03:35:00 Link Pump2 setting changed to   0.00 by Control Pump1
   01/01/1988: 03:35:30 Link Pump2 setting changed to   0.00 by Control Pump1
   01/01/1988: 03:36:00 Link Pump2 setting changed to   0.00 by Control Pump1
   01/01/1988: 03:36:30 Link Pump2 setting changed to   0.00 by Control Pump1
   01/01/1988: 03:37:00 Link Pump2 setting changed to   0.00 by Control Pump1
   01/01/1988: 03:37:30 Link Pump2 setting changed to   0.00 by Control Pump1
   01/01/1988: 03:37:30 Link ControlOrifice setting changed to   0.50 by Control Downstream
   01/01/1988: 03:38:00 Link Pump2 setting changed to   0.00 by Control Pump1
   01/01/1988: 03:38:30 Link Pump2 setting changed to   0.00 by Control Pump1
   01/01/1988: 03:39:00 Link Pump2 setting changed to   0.00 by Control Pump1
   01/01/1988: 03:39:30 Link Pump2 setting changed to   0.00 by Control Pump1
   01/01/1988: 03:40:00 Link Pump2 setting changed to   0.00 by Control Pump1
   01/01/1988: 03:40:30 Link Pump2 setting changed to   0.00 by Control Pump1
   01/01/1988: 03:41:00 Link Pump2 setting changed to   0.00 by Control Pump1
   01/01/1988: 03:41:30 Link Pump2 setting changed to   0.00 by Control Pump1
   01/01/1988: 03:42:00 Link Pump2 setting changed to   0.00 by Control Pump1
   01/01/1988: 03:42:30 Link Pump2 setting changed to   0.00 by Control Pump1
   01/01/1988: 03:43:00 Link Pump2 setting changed to   0.00 by Control Pump1
   01/01/1988: 03:43:30 Link Pump2 setting changed to   0.00 by Control Pump1
   01/01/1988: 03:44:00 Link Pump2 setting changed to   0.00 by Control Pump1
   01/01/1988: 03:44:30 Link Pump2 setting changed to   0.00 by Control Pump1
   01/01/1988: 03:45:00 Link Pump2 setting changed to   0.00 by Control Pump1
   01/01/1988: 03:45:30 Link Pump2 setting changed to   0.00 by Control Pump1
   01/01/1988: 03:46:00 Link Pump2 setting changed to   0.00 by Control Pump1
   01/01/1988: 03:46:30 Link Pump2 setting changed to   0.00 by Control Pump1
   01/01/1988: 03:47:00 Link Pump2 setting changed to   0.00 by Control Pump1

  
  **************************        Volume        Volume
  Flow Routing Continuity        acre-feet      10^6 gal
  **************************     ---------     ---------
  Dry Weather Inflow .......        19.820         6.459
  Wet Weather Inflow .......         0.000         0.000
  Groundwater Inflow .......         0.000         0.000
  RDII Inflow ..............         0.000         0.000
  External Inflow ..........       192.947        62.875
  External Outflow .........       177.477        57.833
  Flooding Loss ............        18.907         6.161
  Evaporation Loss .........         0.116         0.038
  Exfiltration Loss ........         0.000         0.000
  Initial Stored Volume ....         1.569         0.511
  Final Stored Volume ......        20.422         6.655
  Continuity Error (%) .....        -1.206
  
  
  *************************
  Highest Continuity Errors
  *************************
  Node 10309 (20.54%)
  Node 81309e (11.13%)
  Node 16009 (6.61%)
  Node 80608 (4.08%)
  Node 80608a (2.82%)
  
  
  ********************************
  Highest Flow Instability Indexes
  ********************************
  Link OR1@82309d-82308d (106)
  Link 1600 (48)
  Link 1630 (39)
  Link 8040b (31)
  Link 8060a (29)
  
  
  *************************
  Routing Time Step Summary
  *************************
  Minimum Time Step           :    30.00 sec
  Average Time Step           :    30.00 sec
  Maximum Time Step           :    30.00 sec
  Percent in Steady State     :     0.00
  Average Iterations per Step :     5.63
  Percent Not Converging      :    35.83
  
  
  ******************
  Node Depth Summary
  ******************
  
  ---------------------------------------------------------------------------------
                                 Average  Maximum  Maximum  Time of Max    Reported
                                   Depth    Depth      HGL   Occurrence   Max Depth
  Node                 Type         Feet     Feet     Feet  days hr:min        Feet
  ---------------------------------------------------------------------------------
  10309                JUNCTION     6.67     9.40   111.00     0  03:08        9.40
  10309a               JUNCTION     1.92     2.70   104.30     0  01:51        2.70
  10309b               JUNCTION     1.81     2.75   104.35     0  01:48        2.75
  10309c               JUNCTION     1.83     2.86   104.46     0  03:01        2.86
  10309d               JUNCTION     1.91     2.75   104.35     0  03:06        2.75
  10309e               JUNCTION     1.62     2.57   104.17     0  03:02        2.57
  15009                JUNCTION     1.45     2.45   113.95     0  01:34        2.45
  15009a               JUNCTION     1.44     2.45   113.95     0  01:35        2.45
  15009b               JUNCTION     1.53     2.44   113.94     0  01:08        2.44
  15009c               JUNCTION     0.74     1.27   112.77     0  03:00        1.27
  15009d               JUNCTION     1.44     2.45   113.95     0  01:35        2.45
  15009e               JUNCTION     1.14     2.07   123.07     0  03:00        2.07
  16009                JUNCTION     6.36     9.04   111.04     0  03:13        9.04
  16009a               JUNCTION     2.16     2.94   104.94     0  01:42        2.94
  16009b               JUNCTION     1.93     2.94   104.94     0  01:37        2.94
  16009c               JUNCTION     1.93     3.05   105.05     0  03:01        3.05
  16009d               JUNCTION     2.05     2.94   104.94     0  03:04        2.94
  16009e               JUNCTION     1.72     2.75   104.75     0  03:01        2.75
  16109                JUNCTION     5.81     8.36   111.16     0  03:08        8.36
  16109a               JUNCTION     2.17     2.96   105.76     0  01:49        2.96
  16109b               JUNCTION     1.73     2.96   105.76     0  01:49        2.96
[...]
  81309a               JUNCTION      0.00    53.84     0  00:40           0        4.06       0.447
  81309b               JUNCTION      0.00    53.67     0  00:41           0        4.06       0.600
  81309c               JUNCTION      0.00    53.90     0  00:40           0        4.06       0.968
  81309d               JUNCTION      0.00    53.85     0  00:40           0        4.06       0.449
  81309e               JUNCTION      0.00    53.60     0  00:31           0        4.06      12.518
  82308d               JUNCTION      0.00     2.95     0  00:13           0      0.0104       0.000
  82309                JUNCTION     40.00   100.82     0  00:25        3.23        7.31       2.653
  82309a               JUNCTION     40.00    99.52     0  00:25        3.23        7.55       2.328
  82309b               JUNCTION     40.00    84.32     0  00:35        3.23        6.03      -1.076
  82309c               JUNCTION     40.00    85.00     0  03:00        3.23        6.86      -0.112
  WetWell              JUNCTION     40.00    51.25     0  01:24        3.23        4.13      -0.534
  10208                OUTFALL       0.00    86.82     0  03:13           0        7.89       0.000
  10208b               OUTFALL       0.00   121.96     0  01:48           0          10       0.000
  10208c               OUTFALL       0.00   134.95     0  03:01           0        10.8       0.000
  10208d               OUTFALL       0.00   121.82     0  03:06           0        10.5       0.000
  10208e               OUTFALL       0.00   100.98     0  03:02           0        7.65       0.000
  10208a               OUTFALL       0.00   122.26     0  01:51           0        10.9       0.000
  82309d               STORAGE      40.00    85.32     0  01:13        3.23        6.61      -0.514
  
  
  **********************
  Node Surcharge Summary
  **********************
  
  Surcharging occurs when water rises above the top of the highest conduit.
  ---------------------------------------------------------------------
                                               Max. Height   Min. Depth
                                   Hours       Above Crown    Below Rim
  Node                 Type      Surcharged           Feet         Feet
  ---------------------------------------------------------------------
  10309                JUNCTION        0.61          0.400        0.000
  16009                JUNCTION        0.07          0.042        8.958
  16109                JUNCTION        3.66          2.359       13.841
  80408                JUNCTION        2.98          9.400        0.000
  80408a               JUNCTION        2.71          9.400        0.000
  80408b               JUNCTION        2.39          9.400        0.000
  80408d               JUNCTION        2.17          8.757        0.643
  80608                JUNCTION        2.79         12.700        0.000
  80608a               JUNCTION        2.82         12.700        0.000
  80608b               JUNCTION        2.55         12.700        0.000
  80608d               JUNCTION        2.92         12.700        0.000
  81309e               JUNCTION        2.93          8.000        0.000
  82308d               JUNCTION        4.56         19.374       21.326
  82309                JUNCTION        3.00         14.900       21.600
  82309a               JUNCTION        2.93         17.137       19.363
  82309b               JUNCTION        2.70         15.165       21.335
  WetWell              JUNCTION        1.73          1.354       13.446
  
  
  *********************
  Node Flooding Summary
  *********************
  
  Flooding refers to all water that overflows a node, whether it ponds or not.
  --------------------------------------------------------------------------
                                                             Total   Maximum
                                 Maximum   Time of Max       Flood    Ponded
                        Hours       Rate    Occurrence      Volume     Depth
  Node                 Flooded       CFS   days hr:min    10^6 gal      Feet
  --------------------------------------------------------------------------
  10309                   0.16     26.18      0  03:09       0.048     0.000
  80408                   2.69     46.90      0  00:29       2.721     0.000
  80408a                  2.63     36.92      0  00:27       1.002     0.000
  80408b                  0.01      4.70      0  00:43       0.001     0.000
  80608                   0.02     45.31      0  00:27       0.014     0.000
  80608a                  2.67     35.94      0  00:27       1.368     0.000
  80608b                  2.33     13.12      0  01:09       0.782     0.000
  80608d                  0.88     12.57      0  03:00       0.210     0.000
  81309e                  0.03     38.50      0  00:40       0.015     0.000
  
  
  **********************
  Storage Volume Summary
  **********************
  
  --------------------------------------------------------------------------------------------------
                         Average     Avg  Evap Exfil       Maximum     Max    Time of Max    Maximum
                          Volume    Pcnt  Pcnt  Pcnt        Volume    Pcnt     Occurrence    Outflow
  Storage Unit          1000 ft3    Full  Loss  Loss      1000 ft3    Full    days hr:min        CFS
  --------------------------------------------------------------------------------------------------
  82309d                   7.880      23     0     0        17.039      50       0  03:00      71.93
  
  
  ***********************
  Outfall Loading Summary
  ***********************
  
  -----------------------------------------------------------
                         Flow       Avg       Max       Total
                         Freq      Flow      Flow      Volume
  Outfall Node           Pcnt       CFS       CFS    10^6 gal
  -----------------------------------------------------------
  10208                 92.22     52.99     86.82       7.892
  10208b                92.92     66.81    121.96      10.030
  10208c                96.11     69.78    134.95      10.835
  10208d                92.22     70.62    121.82      10.522
  10208e                92.08     51.39    100.98       7.646
  10208a                91.67     73.64    122.26      10.904
  -----------------------------------------------------------
  System                92.87    385.24    687.73      57.829
  
  
  ********************
  Link Flow Summary
  ********************
  
  -----------------------------------------------------------------------------
                                 Maximum  Time of Max   Maximum    Max/    Max/
                                  |Flow|   Occurrence   |Veloc|    Full    Full
  Link                 Type          CFS  days hr:min    ft/sec    Flow   Depth
  -----------------------------------------------------------------------------
  1030e                CONDUIT    100.98     0  03:02      5.58    0.03    0.27
  1030                 CONDUIT     86.82     0  03:13      0.92    0.36    0.62
  1030a                CONDUIT    122.26     0  01:51      3.14    0.04    0.40
  1030b                CONDUIT    121.96     0  01:48      5.83    0.04    0.29
  1030c                CONDUIT    134.95     0  03:01      5.98    0.04    0.30
  1030d                CONDUIT    121.82     0  03:06      5.83    0.04    0.29
  1570                 CONDUIT     50.50     0  01:35      3.28    0.41    0.72
  1570a                CONDUIT     50.49     0  01:35      4.36    0.41    0.49
  ControlLink          CONDUIT     50.31     0  01:08     17.26    0.41    0.49
  1570c                CONDUIT    102.78     0  03:01     11.85    0.12    0.39
  1570d                CONDUIT     50.48     0  01:35      4.48    0.41    0.49
  1570e                CONDUIT     52.78     0  03:01      5.27    0.30    0.44
  1600                 CONDUIT     68.04     0  01:47      5.97    0.46    1.00
  1600a                CONDUIT     71.99     0  02:04      6.01    0.49    0.49
  1600b                CONDUIT     71.99     0  01:50      5.20    0.49    0.49
  1600c                CONDUIT     32.29     0  03:07      2.67    0.22    0.45
  1600d                CONDUIT     71.91     0  03:02      5.20    0.49    0.49
  1600e                CONDUIT     48.28     0  03:01      4.71    0.33    0.43
  1602                 CONDUIT     73.80     0  01:16      4.23    1.70    1.00
  1602a                CONDUIT     71.99     0  02:02      4.33    1.66    0.80
  1602b                CONDUIT     71.99     0  01:48      6.83    1.66    0.80
  1602c                CONDUIT     32.21     0  03:00      6.33    0.74    0.62
  1602d                CONDUIT     71.93     0  03:01      4.29    1.66    0.80
  1602e                CONDUIT     48.30     0  03:00      6.24    1.11    0.74
  1630                 CONDUIT    113.20     0  03:09      5.39    0.05    1.00
  1630a                CONDUIT    122.41     0  01:41      9.10    0.05    0.31
  1630b                CONDUIT    122.03     0  01:32      5.73    0.05    0.32
  1630c                CONDUIT    135.00     0  03:01      5.62    0.06    0.33
  1630d                CONDUIT    121.89     0  03:04      5.52    0.05    0.32
  1630e                CONDUIT    101.04     0  03:01      5.22    0.04    0.30
  8040                 CONDUIT     66.04     0  00:15     33.25    1.46    1.00
  8040a                CONDUIT     66.45     0  00:19     40.31    0.90    1.00
  8040b                CONDUIT     46.45     0  00:22     15.20    0.63    1.00
  8040c                CONDUIT     46.45     0  00:22     15.20    0.63    0.68
  8040d                CONDUIT     46.43     0  00:22     15.22    0.63    1.00
  8040e                CONDUIT     11.71     0  00:25      5.29    0.16    0.35
  8060                 CONDUIT     60.82     0  00:25      5.45    1.14    1.00
  8060a                CONDUIT     59.52     0  00:25      5.34    1.12    1.00
  8060b                CONDUIT     44.32     0  00:35      4.92    0.83    1.00
  8060c                CONDUIT     45.00     0  03:00      5.27    0.84    0.64
  8060d                CONDUIT     45.32     0  01:13      4.87    0.85    1.00
  8060e                CONDUIT     18.13     0  03:04      2.92    0.34    0.72
  8100                 CONDUIT     53.84     0  00:40     17.77    0.69    0.64
  8100a                CONDUIT     53.84     0  00:40     17.77    0.69    0.64
  8100b                CONDUIT     53.67     0  00:41     18.81    0.69    0.63
  8100c                CONDUIT     53.90     0  00:40     18.58    0.69    0.67
  8100d                CONDUIT     53.85     0  00:40     17.77    0.69    0.64
  8100e                CONDUIT     53.45     0  00:31     17.76    0.68    0.85
  8130                 CONDUIT     51.06     0  01:13      5.59    0.72    0.61
  8130a                CONDUIT     51.06     0  01:13      5.60    0.72    0.61
  8130b                CONDUIT     50.19     0  01:06      5.00    0.71    0.61
  8130c                CONDUIT     50.00     0  03:01      6.09    0.71    0.52
  8130d                CONDUIT     51.02     0  01:13      5.51    0.72    0.61
  8130e                CONDUIT     50.03     0  02:00      4.44    0.93    0.73
  Pump1                PUMP         1.00     0  00:10              0.20
  Pump2                PUMP         1.74     0  00:40              0.35
  Pump3                PUMP         2.78     0  03:00              0.56
  OR1@82309d-82308d    ORIFICE      6.31     0  04:43                      1.00
  ControlOrifice       ORIFICE      9.50     0  00:43                          
  WEIR1@82309c-15009c  WEIR        52.81     0  01:21                      0.51
  
  
  ***************************
  Flow Classification Summary
  ***************************
  
  -------------------------------------------------------------------------------------
                      Adjusted    ---------- Fraction of Time in Flow Class ---------- 
                       /Actual         Up    Down  Sub   Sup   Up    Down  Norm  Inlet 
  Conduit               Length    Dry  Dry   Dry   Crit  Crit  Crit  Crit  Ltd   Ctrl  
  -------------------------------------------------------------------------------------
  1030e                   1.00   0.04  0.00  0.00  0.96  0.00  0.00  0.00  0.00  0.00
  1030                    1.00   0.04  0.00  0.00  0.96  0.00  0.00  0.00  0.00  0.00
  1030a                   1.00   0.00  0.06  0.00  0.94  0.00  0.00  0.00  0.94  0.00
  1030b                   1.00   0.00  0.00  0.00  1.00  0.00  0.00  0.00  0.00  0.00
  1030c                   1.00   0.00  0.00  0.00  1.00  0.00  0.00  0.00  0.00  0.00
  1030d                   1.00   0.04  0.00  0.00  0.96  0.00  0.00  0.00  0.00  0.00
  1570                    1.00   0.00  0.00  0.00  1.00  0.00  0.00  0.00  0.94  0.00
  1570a                   1.00   0.00  0.00  0.00  1.00  0.00  0.00  0.00  0.95  0.00
  ControlLink             1.00   0.00  0.00  0.00  0.98  0.02  0.00  0.00  0.90  0.00
  1570c                   5.02   0.00  0.00  0.00  0.42  0.57  0.00  0.00  1.00  0.00
  1570d                   1.00   0.00  0.00  0.00  1.00  0.00  0.00  0.00  0.92  0.00
  1570e                   1.00   0.00  0.02  0.00  0.97  0.00  0.00  0.00  0.94  0.00
  1600                    1.00   0.00  0.00  0.00  0.98  0.02  0.00  0.00  0.01  0.00
  1600a                   1.00   0.00  0.00  0.00  0.98  0.02  0.00  0.00  0.33  0.00
  1600b                   1.00   0.00  0.00  0.00  1.00  0.00  0.00  0.00  0.36  0.00
  1600c                   1.00   0.00  0.00  0.00  1.00  0.00  0.00  0.00  0.41  0.00
  1600d                   1.00   0.00  0.00  0.00  0.98  0.02  0.00  0.00  0.30  0.00
  1600e                   1.00   0.00  0.00  0.00  0.98  0.02  0.00  0.00  0.40  0.00
  1602                    1.00   0.00  0.00  0.00  1.00  0.00  0.00  0.00  0.33  0.00
  1602a                   1.00   0.00  0.00  0.00  1.00  0.00  0.00  0.00  0.00  0.00
  1602b                   1.00   0.00  0.00  0.00  1.00  0.00  0.00  0.00  0.25  0.00
  1602c                   1.00   0.00  0.00  0.00  1.00  0.00  0.00  0.00  0.02  0.00
  1602d                   1.00   0.00  0.00  0.00  1.00  0.00  0.00  0.00  0.00  0.00
  1602e                   1.00   0.00  0.12  0.00  0.88  0.00  0.00  0.00  0.21  0.00
  1630                    1.00   0.00  0.00  0.00  1.00  0.00  0.00  0.00  0.00  0.00
  1630a                   1.00   0.00  0.00  0.00  0.94  0.05  0.00  0.00  0.00  0.00
  1630b                   1.00   0.00  0.00  0.00  1.00  0.00  0.00  0.00  0.23  0.00
  1630c                   1.00   0.00  0.00  0.00  0.97  0.03  0.00  0.00  0.31  0.00
  1630d                   1.00   0.00  0.00  0.00  0.99  0.01  0.00  0.00  0.14  0.00
  1630e                   1.00   0.00  0.00  0.00  0.97  0.03  0.00  0.00  0.27  0.00
  8040                    1.00   0.00  0.00  0.00  0.99  0.01  0.00  0.00  0.00  0.00
  8040a                   1.00   0.00  0.00  0.00  0.97  0.03  0.00  0.00  0.48  0.00
  8040b                   1.00   0.00  0.00  0.00  0.96  0.04  0.00  0.00  0.52  0.00
  8040c                   1.00   0.00  0.00  0.00  0.96  0.04  0.00  0.00  0.94  0.00
  8040d                   1.00   0.00  0.00  0.00  0.96  0.04  0.00  0.00  0.49  0.00
  8040e                   1.00   0.00  0.00  0.00  0.95  0.05  0.00  0.00  0.93  0.00
  8060                    1.00   0.00  0.00  0.00  0.60  0.00  0.00  0.40  0.08  0.00
  8060a                   1.00   0.00  0.00  0.00  0.62  0.00  0.00  0.38  0.08  0.00
  8060b                   1.00   0.00  0.00  0.00  0.58  0.00  0.00  0.42  0.11  0.00
  8060c                   1.00   0.00  0.00  0.00  0.00  0.00  0.00  1.00  0.00  0.00
  8060d                   1.00   0.00  0.00  0.00  0.70  0.00  0.00  0.29  0.12  0.00
  8060e                   1.00   0.00  0.00  0.00  0.56  0.00  0.00  0.44  0.27  0.00
  8100                    1.00   0.00  0.00  0.00  0.96  0.04  0.00  0.00  0.89  0.00
  8100a                   1.00   0.00  0.00  0.00  0.96  0.04  0.00  0.00  0.89  0.00
  8100b                   1.00   0.00  0.00  0.00  0.96  0.04  0.00  0.00  0.89  0.00
  8100c                   1.00   0.00  0.00  0.00  0.96  0.04  0.00  0.00  0.89  0.00
  8100d                   1.00   0.00  0.00  0.00  0.96  0.04  0.00  0.00  0.89  0.00
  8100e                   1.00   0.00  0.00  0.00  0.96  0.03  0.00  0.00  0.50  0.00
  8130                    1.00   0.00  0.00  0.00  0.97  0.03  0.00  0.00  0.45  0.00
  8130a                   1.00   0.00  0.00  0.00  0.97  0.03  0.00  0.00  0.45  0.00
  8130b                   1.00   0.00  0.00  0.00  1.00  0.00  0.00  0.00  0.48  0.00
  8130c                   1.00   0.00  0.00  0.00  0.85  0.15  0.00  0.00  0.00  0.00
  8130d                   1.00   0.00  0.00  0.00  0.97  0.03  0.00  0.00  0.45  0.00
  8130e                   1.00   0.00  0.03  0.00  0.97  0.00  0.00  0.00  0.07  0.00
  
  
  *************************
  Conduit Surcharge Summary
  *************************
  
  ----------------------------------------------------------------------------
                                                           Hours        Hours 
                         --------- Hours Full --------   Above Full   Capacity
  Conduit                Both Ends  Upstream  Dnstream   Normal Flow   Limited
  ----------------------------------------------------------------------------
  1030                        0.01      0.60      0.01      0.01         0.01
  1570                        0.01      0.01      4.59      0.01         0.01
  1600                        3.65      3.65      4.45      0.01         0.01
  1602                        2.21      3.28      4.53      2.77         1.75
  1602a                       0.01      3.20      0.01      3.14         0.01
  1602b                       0.01      2.95      0.01      2.86         0.01
  1602d                       0.01      3.69      0.01      3.53         0.01
  1602e                       0.01      2.50      0.01      2.27         0.01
  1630                        0.07      0.07      0.61      0.01         0.01
  8040                        2.76      2.98      2.79      0.26         0.01
  8040a                       2.71      2.71      2.82      0.01         0.01
  8040b                       2.39      2.39      2.55      0.01         0.01
  8040d                       2.17      2.17      2.91      0.01         0.01
  8060                        2.79      2.79      3.00      0.07         0.01
  8060a                       2.82      2.82      2.92      0.07         0.01
  8060b                       2.55      2.55      2.69      0.01         0.01
  8060d                       2.91      2.91      3.49      0.01         0.01
  8060e                       0.01      0.01      1.73      0.01         0.01
  8100e                       0.01      0.01      2.93      0.01         0.01
  8130e                       0.01      0.01      2.93      0.01         0.01
  
  
  ***************
  Pumping Summary
  ***************
  
  ---------------------------------------------------------------------------------------------------------
                                                  Min       Avg       Max     Total     Power    % Time Off
                        Percent   Number of      Flow      Flow      Flow    Volume     Usage    Pump Curve
  Pump                 Utilized   Start-Ups       CFS       CFS       CFS  10^6 gal     Kw-hr    Low   High
  ---------------------------------------------------------------------------------------------------------
  Pump1                   44.17           2      0.00      0.75      1.00     0.053      1.37    0.0    0.0
  Pump2                   11.53           2      0.00      1.18      1.74     0.022      0.36    0.0    0.0
  Pump3                   41.67           1      0.00      2.14      2.78     0.144      1.65    0.0    0.0
  

  Analysis begun on:  Tue Nov 20 16:40:24 2018
  Analysis ended on:  Tue Nov 20 16:40:24 2018
  Total elapsed time: < 1 sec