
  EPA STORM WATER MANAGEMENT MODEL - VERSION 5.1 (Build 5.1.012)
  --------------------------------------------------------------

  
  ERROR 205: invalid keyword RULE_STEP at line 29 of [OPTION] section:
  RULE_STEP

  Analysis begun on:  Tue Nov 20 16:39:26 2018
  Analysis ended on:  Tue Nov 20 16:39:26 2018
  Total elapsed time: < 1 sec