
  EPA STORM WATER MANAGEMENT MODEL - VERSION 5.1 (Build 5.1.013)
  --------------------------------------------------------------

  SWMM-EPANET Comparison 
  
  WARNING 04: minimum elevation drop used for Conduit 1
  WARNING 04: minimum elevation drop used for Conduit 2
  WARNING 04: minimum elevation drop used for Conduit 3
  WARNING 04: minimum elevation drop used for Conduit 4
  WARNING 04: minimum elevation drop used for Conduit 5
  WARNING 04: minimum elevation drop used for Conduit 6
  WARNING 04: minimum elevation drop used for Conduit 7
  WARNING 04: minimum elevation drop used for Conduit 8
  WARNING 04: minimum elevation drop used for Conduit 9
  WARNING 04: minimum elevation drop used for Conduit 10
  WARNING 04: minimum elevation drop used for Conduit 11
  
  *********************************************************
  NOTE: The summary statistics displayed in this report are
  based on results found at every computational time step,  
  not just on results from each reporting time step.
  *********************************************************
  
  ****************
  Analysis Options
  ****************
  Flow Units ............... GPM
  Process Models:
    Rainfall/Runoff ........ NO
    RDII ................... NO
    Snowmelt ............... NO
    Groundwater ............ NO
    Flow Routing ........... YES
    Ponding Allowed ........ NO
    Water Quality .......... NO
  Flow Routing Method ...... DYNWAVE
  Surcharge Method ......... EXTRAN
  Starting Date ............ 07/29/2014 00:00:00
  Ending Date .............. 07/29/2014 02:00:00
  Antecedent Dry Days ...... 0.0
  Report Time Step ......... 00:15:00
  Routing Time Step ........ 10.00 sec
  Variable Time Step ....... NO
  Maximum Trials ........... 12
  Number of Threads ........ 1
  Head Tolerance ........... 0.010000 ft
  
  
  **************************        Volume        Volume
  Flow Routing Continuity        acre-feet      10^6 gal
  **************************     ---------     ---------
  Dry Weather Inflow .......         0.000         0.000
  Wet Weather Inflow .......         0.000         0.000
  Groundwater Inflow .......         0.000         0.000
  RDII Inflow ..............         0.000         0.000
  External Inflow ..........         0.004         0.001
  External Outflow .........         0.000         0.000
  Flooding Loss ............         0.000         0.000
  Evaporation Loss .........         0.000         0.000
  Exfiltration Loss ........         0.000         0.000
  Initial Stored Volume ....         0.008         0.003
  Final Stored Volume ......         0.008         0.003
  Continuity Error (%) .....        33.789
  
  
  *************************
  Highest Continuity Errors
  *************************
  Node 8 (2.29%)
  
  
  ********************************
  Highest Flow Instability Indexes
  ********************************
  All links are stable.
  
  
  *************************
  Routing Time Step Summary
  *************************
  Minimum Time Step           :    10.00 sec
  Average Time Step           :    10.00 sec
  Maximum Time Step           :    10.00 sec
  Percent in Steady State     :     0.00
  Average Iterations per Step :     2.68
  Percent Not Converging      :     6.81
  
  
  ******************
  Node Depth Summary
  ******************
  
  ---------------------------------------------------------------------------------
                                 Average  Maximum  Maximum  Time of Max    Reported
                                   Depth    Depth      HGL   Occurrence   Max Depth
  Node                 Type         Feet     Feet     Feet  days hr:min        Feet
  ---------------------------------------------------------------------------------
  2                    JUNCTION   772.90   778.11   778.11     0  02:00      778.11
  3                    JUNCTION   806.88   811.23   811.23     0  02:00      811.23
  4                    JUNCTION   784.30   789.34   789.34     0  02:00      789.34
  5                    JUNCTION   764.46   770.10   770.10     0  02:00      770.10
  6                    JUNCTION   769.14   774.68   774.68     0  02:00      774.68
  7                    JUNCTION   776.65   782.01   782.01     0  02:00      782.01
  8                    JUNCTION   761.25   767.10   767.10     0  02:00      767.10
  9                    JUNCTION   761.57   767.44   767.44     0  02:00      767.44
  1                    OUTFALL    970.00   970.00   970.00     0  00:00      970.00
  
  
  *******************
  Node Inflow Summary
  *******************
  
  -------------------------------------------------------------------------------------------------
                                  Maximum  Maximum                  Lateral       Total        Flow
                                  Lateral    Total  Time of Max      Inflow      Inflow     Balance
                                   Inflow   Inflow   Occurrence      Volume      Volume       Error
  Node                 Type           GPM      GPM  days hr:min    10^6 gal    10^6 gal     Percent
  -------------------------------------------------------------------------------------------------
  2                    JUNCTION   -150.00   590.54     0  00:00      -0.018       0.034       0.250
  3                    JUNCTION   -150.00  1789.41     0  00:00      -0.018       0.115       0.095
  4                    JUNCTION   -100.00   591.51     0  00:00      -0.012      0.0273       0.402
  5                    JUNCTION   -150.00   597.44     0  00:00      -0.018      0.0276       0.706
  6                    JUNCTION   -200.00   800.46     0  00:00      -0.024      0.0509       0.375
  7                    JUNCTION      0.00   344.64     0  00:00           0      0.0152       0.000
  8                    JUNCTION   -100.00   540.70     0  00:00      -0.012      0.0123       2.340
  9                    JUNCTION   -100.00   498.12     0  00:00      -0.012      0.0151       0.000
  1                    OUTFALL       0.00  1789.41     0  00:00           0       0.115       0.000
  
  
  **********************
  Node Surcharge Summary
  **********************
  
  Surcharging occurs when water rises above the top of the highest conduit.
  ---------------------------------------------------------------------
                                               Max. Height   Min. Depth
                                   Hours       Above Crown    Below Rim
  Node                 Type      Surcharged           Feet         Feet
  ---------------------------------------------------------------------
  2                    JUNCTION        2.00        777.780      221.887
  3                    JUNCTION        2.00        810.892      188.775
  4                    JUNCTION        2.00        789.004      210.663
  5                    JUNCTION        2.00        769.768      229.899
  6                    JUNCTION        2.00        774.350      225.317
  7                    JUNCTION        2.00        781.677      217.990
  8                    JUNCTION        2.00        766.770      232.897
  9                    JUNCTION        2.00        767.103      232.564
  
  
  *********************
  Node Flooding Summary
  *********************
  
  No nodes were flooded.
  
  
  ***********************
  Outfall Loading Summary
  ***********************
  
  -----------------------------------------------------------
                         Flow       Avg       Max       Total
                         Freq      Flow      Flow      Volume
  Outfall Node           Pcnt       GPM       GPM    10^6 gal
  -----------------------------------------------------------
  1                    100.00    961.64   1789.41       0.115
  -----------------------------------------------------------
  System               100.00    961.64   1789.41       0.115
  
  
  ********************
  Link Flow Summary
  ********************
  
  -----------------------------------------------------------------------------
                                 Maximum  Time of Max   Maximum    Max/    Max/
                                  |Flow|   Occurrence   |Veloc|    Full    Full
  Link                 Type          GPM  days hr:min    ft/sec    Flow   Depth
  -----------------------------------------------------------------------------
  1                    CONDUIT   1789.41     0  00:00     45.78  1097.50    1.00
  2                    CONDUIT    590.54     0  00:00     15.11  526.62    1.00
  3                    CONDUIT    591.51     0  00:00     15.13  527.49    1.00
  4                    CONDUIT    410.22     0  00:00     10.49  365.82    1.00
  5                    CONDUIT    729.67     0  00:00     18.67  650.70    1.00
  6                    CONDUIT    344.64     0  00:00      8.82  307.34    1.00
  7                    CONDUIT    465.02     0  00:00     11.90  414.69    1.00
  8                    CONDUIT    187.22     0  00:00      4.79  166.96    1.00
  9                    CONDUIT    209.21     0  00:00      5.35  186.57    1.00
  10                   CONDUIT    498.12     0  00:00     12.74  444.21    1.00
  11                   CONDUIT     75.67     0  00:00      1.94   67.48    1.00
  
  
  ***************************
  Flow Classification Summary
  ***************************
  
  -------------------------------------------------------------------------------------
                      Adjusted    ---------- Fraction of Time in Flow Class ---------- 
                       /Actual         Up    Down  Sub   Sup   Up    Down  Norm  Inlet 
  Conduit               Length    Dry  Dry   Dry   Crit  Crit  Crit  Crit  Ltd   Ctrl  
  -------------------------------------------------------------------------------------
  1                       1.00   0.00  0.00  0.00  1.00  0.00  0.00  0.00  0.00  0.00
  2                       1.00   0.00  0.00  0.00  1.00  0.00  0.00  0.00  0.00  0.00
  3                       1.00   0.00  0.00  0.00  1.00  0.00  0.00  0.00  0.00  0.00
  4                       1.00   0.00  0.00  0.00  1.00  0.00  0.00  0.00  0.00  0.00
  5                       1.00   0.00  0.00  0.00  1.00  0.00  0.00  0.00  0.00  0.00
  6                       1.00   0.00  0.00  0.00  1.00  0.00  0.00  0.00  0.00  0.00
  7                       1.00   0.00  0.00  0.00  1.00  0.00  0.00  0.00  0.00  0.00
  8                       1.00   0.00  0.00  0.00  1.00  0.00  0.00  0.00  0.00  0.00
  9                       1.00   0.00  0.00  0.00  1.00  0.00  0.00  0.00  0.00  0.00
  10                      1.00   0.00  0.00  0.00  1.00  0.00  0.00  0.00  0.00  0.00
  11                      1.00   0.00  0.00  0.00  1.00  0.00  0.00  0.00  0.00  0.00
  
  
  *************************
  Conduit Surcharge Summary
  *************************
  
  ----------------------------------------------------------------------------
                                                           Hours        Hours 
                         --------- Hours Full --------   Above Full   Capacity
  Conduit                Both Ends  Upstream  Dnstream   Normal Flow   Limited
  ----------------------------------------------------------------------------
  1                           2.00      2.00      2.00      2.00         2.00
  2                           2.00      2.00      2.00      2.00         2.00
  3                           2.00      2.00      2.00      2.00         2.00
  4                           2.00      2.00      2.00      2.00         2.00
  5                           2.00      2.00      2.00      2.00         2.00
  6                           2.00      2.00      2.00      2.00         2.00
  7                           2.00      2.00      2.00      2.00         2.00
  8                           2.00      2.00      2.00      2.00         0.01
  9                           2.00      2.00      2.00      2.00         0.01
  10                          2.00      2.00      2.00      2.00         2.00
  11                          2.00      2.00      2.00      2.00         0.01
  

  Analysis begun on:  Tue Oct 30 19:35:57 2018
  Analysis ended on:  Tue Oct 30 19:35:57 2018
  Total elapsed time: < 1 sec