
  EPA STORM WATER MANAGEMENT MODEL - VERSION 5.1 (Build 5.1.013)
  --------------------------------------------------------------

   EXTRAN USER''S MANUAL EXAMPLE PROBLEM 80 ISOL = 1 SOLUTION 
   Flow thru a constricting pipe in the center 
  
  
  *************
  Element Count
  *************
  Number of rain gages ...... 0
  Number of subcatchments ... 0
  Number of nodes ........... 6
  Number of links ........... 5
  Number of pollutants ...... 0
  Number of land uses ....... 0
  
  
  ************
  Node Summary
  ************
                                           Invert      Max.    Ponded    External
  Name                 Type                 Elev.     Depth      Area    Inflow  
  -------------------------------------------------------------------------------
  1                    JUNCTION            175.00     65.00       0.0    Yes
  2                    JUNCTION            174.50     65.50       0.0
  3                    JUNCTION            174.00     64.00       0.0
  4                    JUNCTION            173.50     44.50       0.0
  5                    JUNCTION            173.00     13.00       0.0
  6                    OUTFALL             172.50     12.00       0.0
  
  
  ************
  Link Summary
  ************
  Name             From Node        To Node          Type            Length    %Slope Roughness
  ---------------------------------------------------------------------------------------------
  1                1                2                CONDUIT         1000.0    0.0500    0.0200
  2                2                3                CONDUIT         1000.0    0.0500    0.0200
  3                3                4                CONDUIT         1000.0    0.0500    0.0200
  4                4                5                CONDUIT         1000.0    0.0500    0.0200
  5                5                6                CONDUIT         1000.0    0.0500    0.0200
  
  
  *********************
  Cross Section Summary
  *********************
                                        Full     Full     Hyd.     Max.   No. of     Full
  Conduit          Shape               Depth     Area     Rad.    Width  Barrels     Flow
  ---------------------------------------------------------------------------------------
  1                CIRCULAR            12.00   113.10     3.00    12.00        1   390.85
  2                CIRCULAR             3.00     7.07     0.75     3.00        1     9.69
  3                CIRCULAR            12.00   113.10     3.00    12.00        1   390.85
  4                CIRCULAR             3.00     7.07     0.75     3.00        1     9.69
  5                CIRCULAR            12.00   113.10     3.00    12.00        1   390.85
  
  
  
  *********************************************************
  NOTE: The summary statistics displayed in this report are
  based on results found at every computational time step,  
  not just on results from each reporting time step.
  *********************************************************
  
  ****************
  Analysis Options
  ****************
  Flow Units ............... CFS
  Process Models:
    Rainfall/Runoff ........ NO
    RDII ................... NO
    Snowmelt ............... NO
    Groundwater ............ NO
    Flow Routing ........... YES
    Ponding Allowed ........ NO
    Water Quality .......... NO
  Flow Routing Method ...... DYNWAVE
  Surcharge Method ......... EXTRAN
  Starting Date ............ 01/01/1988 00:00:00
  Ending Date .............. 01/01/1988 06:00:00
  Antecedent Dry Days ...... 0.0
  Report Time Step ......... 00:05:00
  Routing Time Step ........ 10.00 sec
  Variable Time Step ....... YES
  Maximum Trials ........... 8
  Number of Threads ........ 1
  Head Tolerance ........... 0.001000 ft
  
  
  *********************
  Control Actions Taken
  *********************

  
  **************************        Volume        Volume
  Flow Routing Continuity        acre-feet      10^6 gal
  **************************     ---------     ---------
  Dry Weather Inflow .......         0.000         0.000
  Wet Weather Inflow .......         0.000         0.000
  Groundwater Inflow .......         0.000         0.000
  RDII Inflow ..............         0.000         0.000
  External Inflow ..........        14.462         4.713
  External Outflow .........        12.344         4.022
  Flooding Loss ............         0.000         0.000
  Evaporation Loss .........         0.000         0.000
  Exfiltration Loss ........         0.000         0.000
  Initial Stored Volume ....         0.000         0.000
  Final Stored Volume ......         2.119         0.690
  Continuity Error (%) .....        -0.001
  
  
  *************************
  Highest Continuity Errors
  *************************
  Node 4 (4.14%)
  Node 2 (4.09%)
  Node 3 (3.26%)
  Node 5 (1.60%)
  
  
  ***************************
  Time-Step Critical Elements
  ***************************
  None
  
  
  ********************************
  Highest Flow Instability Indexes
  ********************************
  All links are stable.
  
  
  *************************
  Routing Time Step Summary
  *************************
  Minimum Time Step           :     1.74 sec
  Average Time Step           :     9.99 sec
  Maximum Time Step           :    10.00 sec
  Percent in Steady State     :     0.00
  Average Iterations per Step :     2.76
  Percent Not Converging      :    10.18
  
  
  ******************
  Node Depth Summary
  ******************
  
  ---------------------------------------------------------------------------------
                                 Average  Maximum  Maximum  Time of Max    Reported
                                   Depth    Depth      HGL   Occurrence   Max Depth
  Node                 Type         Feet     Feet     Feet  days hr:min        Feet
  ---------------------------------------------------------------------------------
  1                    JUNCTION     8.22    13.57   188.57     0  03:01       13.51
  2                    JUNCTION     8.65    14.07   188.57     0  03:01       14.00
  3                    JUNCTION     4.80     6.76   180.76     0  03:38        6.76
  4                    JUNCTION     5.20     7.25   180.75     0  03:37        7.25
  5                    JUNCTION     2.03     2.43   175.43     0  03:41        2.43
  6                    OUTFALL      1.01     1.24   173.74     0  03:41        1.24
  
  
  *******************
  Node Inflow Summary
  *******************
  
  -------------------------------------------------------------------------------------------------
                                  Maximum  Maximum                  Lateral       Total        Flow
                                  Lateral    Total  Time of Max      Inflow      Inflow     Balance
                                   Inflow   Inflow   Occurrence      Volume      Volume       Error
  Node                 Type           CFS      CFS  days hr:min    10^6 gal    10^6 gal     Percent
  -------------------------------------------------------------------------------------------------
  1                    JUNCTION     40.00    40.00     0  00:15        4.71        4.71       2.537
  2                    JUNCTION      0.00    39.76     0  03:00           0         4.6       4.267
  3                    JUNCTION      0.00    39.70     0  03:00           0        4.41       3.366
  4                    JUNCTION      0.00    35.89     0  03:02           0        4.26       4.324
  5                    JUNCTION      0.00    33.42     0  03:38           0        4.09       1.626
  6                    OUTFALL       0.00    33.41     0  03:41           0        4.02       0.000
  
  
  **********************
  Node Surcharge Summary
  **********************
  
  Surcharging occurs when water rises above the top of the highest conduit.
  ---------------------------------------------------------------------
                                               Max. Height   Min. Depth
                                   Hours       Above Crown    Below Rim
  Node                 Type      Surcharged           Feet         Feet
  ---------------------------------------------------------------------
  1                    JUNCTION        0.57          1.572       51.428
  2                    JUNCTION        0.89          2.067       51.433
  
  
  *********************
  Node Flooding Summary
  *********************
  
  No nodes were flooded.
  
  
  ***********************
  Outfall Loading Summary
  ***********************
  
  -----------------------------------------------------------
                         Flow       Avg       Max       Total
                         Freq      Flow      Flow      Volume
  Outfall Node           Pcnt       CFS       CFS    10^6 gal
  -----------------------------------------------------------
  6                     94.54     26.32     33.41       4.022
  -----------------------------------------------------------
  System                94.54     26.32     33.41       4.022
  
  
  ********************
  Link Flow Summary
  ********************
  
  -----------------------------------------------------------------------------
                                 Maximum  Time of Max   Maximum    Max/    Max/
                                  |Flow|   Occurrence   |Veloc|    Full    Full
  Link                 Type          CFS  days hr:min    ft/sec    Flow   Depth
  -----------------------------------------------------------------------------
  1                    CONDUIT     39.76     0  03:00      2.68    0.10    1.00
  2                    CONDUIT     39.70     0  03:00      5.62    4.09    1.00
  3                    CONDUIT     35.89     0  03:02      2.26    0.09    0.58
  4                    CONDUIT     33.42     0  03:38      4.97    3.45    0.91
  5                    CONDUIT     33.41     0  03:41      3.05    0.09    0.15
  
  
  ***************************
  Flow Classification Summary
  ***************************
  
  -------------------------------------------------------------------------------------
                      Adjusted    ---------- Fraction of Time in Flow Class ---------- 
                       /Actual         Up    Down  Sub   Sup   Up    Down  Norm  Inlet 
  Conduit               Length    Dry  Dry   Dry   Crit  Crit  Crit  Crit  Ltd   Ctrl  
  -------------------------------------------------------------------------------------
  1                       1.00   0.00  0.00  0.00  1.00  0.00  0.00  0.00  0.00  0.00
  2                       1.00   0.00  0.00  0.00  1.00  0.00  0.00  0.00  0.00  0.00
  3                       1.00   0.00  0.00  0.00  1.00  0.00  0.00  0.00  0.00  0.00
  4                       1.00   0.01  0.00  0.00  0.99  0.00  0.00  0.00  0.00  0.00
  5                       1.00   0.01  0.00  0.00  0.99  0.00  0.00  0.00  0.00  0.00
  
  
  *************************
  Conduit Surcharge Summary
  *************************
  
  ----------------------------------------------------------------------------
                                                           Hours        Hours 
                         --------- Hours Full --------   Above Full   Capacity
  Conduit                Both Ends  Upstream  Dnstream   Normal Flow   Limited
  ----------------------------------------------------------------------------
  1                           0.57      0.57      0.89      0.01         0.01
  2                           5.08      5.69      5.08      5.73         5.08
  4                           0.01      5.25      0.01      5.44         0.01
  

  Analysis begun on:  Tue Nov 20 16:54:52 2018
  Analysis ended on:  Tue Nov 20 16:54:53 2018
  Total elapsed time: 00:00:01