
  EPA STORM WATER MANAGEMENT MODEL - VERSION 5.1 (Build 5.1.013)
  --------------------------------------------------------------

  Example 7 of Extran Manual - 
  Type 2 Pump 
  
  
  *********************************************************
  NOTE: The summary statistics displayed in this report are
  based on results found at every computational time step,  
  not just on results from each reporting time step.
  *********************************************************
  
  ****************
  Analysis Options
  ****************
  Flow Units ............... CFS
  Process Models:
    Rainfall/Runoff ........ NO
    RDII ................... NO
    Snowmelt ............... NO
    Groundwater ............ NO
    Flow Routing ........... YES
    Ponding Allowed ........ NO
    Water Quality .......... NO
  Flow Routing Method ...... DYNWAVE
  Surcharge Method ......... SLOT
  Starting Date ............ 01/01/2002 00:00:00
  Ending Date .............. 01/01/2002 08:00:00
  Antecedent Dry Days ...... 0.0
  Report Time Step ......... 00:15:00
  Routing Time Step ........ 20.00 sec
  Variable Time Step ....... NO
  Maximum Trials ........... 8
  Number of Threads ........ 1
  Head Tolerance ........... 0.005000 ft
  
  
  **************************        Volume        Volume
  Flow Routing Continuity        acre-feet      10^6 gal
  **************************     ---------     ---------
  Dry Weather Inflow .......         0.000         0.000
  Wet Weather Inflow .......         0.000         0.000
  Groundwater Inflow .......         0.000         0.000
  RDII Inflow ..............         0.000         0.000
  External Inflow ..........        33.470        10.907
  External Outflow .........        33.244        10.833
  Flooding Loss ............         0.176         0.057
  Evaporation Loss .........         0.000         0.000
  Exfiltration Loss ........         0.000         0.000
  Initial Stored Volume ....         0.000         0.000
  Final Stored Volume ......         0.087         0.028
  Continuity Error (%) .....        -0.111
  
  
  *************************
  Highest Continuity Errors
  *************************
  Node 80608 (1.40%)
  
  
  ********************************
  Highest Flow Instability Indexes
  ********************************
  Link 8060 (2)
  Link 8040 (1)
  
  
  *************************
  Routing Time Step Summary
  *************************
  Minimum Time Step           :    20.00 sec
  Average Time Step           :    20.00 sec
  Maximum Time Step           :    20.00 sec
  Percent in Steady State     :     0.00
  Average Iterations per Step :     2.17
  Percent Not Converging      :     0.21
  
  
  ******************
  Node Depth Summary
  ******************
  
  ---------------------------------------------------------------------------------
                                 Average  Maximum  Maximum  Time of Max    Reported
                                   Depth    Depth      HGL   Occurrence   Max Depth
  Node                 Type         Feet     Feet     Feet  days hr:min        Feet
  ---------------------------------------------------------------------------------
  80408                JUNCTION     3.65    12.63   137.23     0  01:02       12.60
  80608                JUNCTION     5.06    16.70   135.00     0  01:02       16.70
  81009                JUNCTION     1.11     2.86   131.06     0  00:32        2.85
  81309                JUNCTION     1.27     3.00   120.50     0  00:56        2.99
  82309                JUNCTION     6.57    20.37   132.67     0  01:03       20.33
  10309                JUNCTION     1.49     2.85   104.45     0  01:41        2.85
  15009                JUNCTION     1.29     2.72   114.22     0  01:28        2.72
  16009                JUNCTION     1.57     3.05   105.05     0  01:34        3.05
  16109                JUNCTION     1.30     3.02   105.82     0  01:38        3.02
  10208                OUTFALL      1.32     2.63    92.53     0  01:41        2.63
  
  
  *******************
  Node Inflow Summary
  *******************
  
  -------------------------------------------------------------------------------------------------
                                  Maximum  Maximum                  Lateral       Total        Flow
                                  Lateral    Total  Time of Max      Inflow      Inflow     Balance
                                   Inflow   Inflow   Occurrence      Volume      Volume       Error
  Node                 Type           CFS      CFS  days hr:min    10^6 gal    10^6 gal     Percent
  -------------------------------------------------------------------------------------------------
  80408                JUNCTION     45.00    45.00     0  00:15        3.64        3.64      -0.141
  80608                JUNCTION      0.00    46.58     0  00:22           0        3.64       1.424
  81009                JUNCTION     50.00    50.00     0  00:15        4.04        4.04      -0.542
  81309                JUNCTION      0.00    53.75     0  00:40           0        4.06       0.479
  82309                JUNCTION     40.00    84.53     0  00:36        3.23        6.76      -0.779
  10309                JUNCTION      0.00   134.59     0  01:33           0        10.8       0.097
  15009                JUNCTION      0.00    61.47     0  01:08           0        4.98      -0.039
  16009                JUNCTION      0.00   134.63     0  01:29           0        10.9       0.170
  16109                JUNCTION      0.00    74.02     0  01:03           0        5.87      -0.017
  10208                OUTFALL       0.00   134.49     0  01:41           0        10.8       0.000
  
  
  **********************
  Node Surcharge Summary
  **********************
  
  Surcharging occurs when water rises above the top of the highest conduit.
  ---------------------------------------------------------------------
                                               Max. Height   Min. Depth
                                   Hours       Above Crown    Below Rim
  Node                 Type      Surcharged           Feet         Feet
  ---------------------------------------------------------------------
  80408                JUNCTION        2.18          8.631        0.769
  80608                JUNCTION        2.46         12.700        0.000
  82309                JUNCTION        2.73         14.167       22.333
  
  
  *********************
  Node Flooding Summary
  *********************
  
  Flooding refers to all water that overflows a node, whether it ponds or not.
  --------------------------------------------------------------------------
                                                             Total   Maximum
                                 Maximum   Time of Max       Flood    Ponded
                        Hours       Rate    Occurrence      Volume     Depth
  Node                 Flooded       CFS   days hr:min    10^6 gal      Feet
  --------------------------------------------------------------------------
  80608                   1.98      1.16      0  01:04       0.057     0.000
  
  
  ***********************
  Outfall Loading Summary
  ***********************
  
  -----------------------------------------------------------
                         Flow       Avg       Max       Total
                         Freq      Flow      Flow      Volume
  Outfall Node           Pcnt       CFS       CFS    10^6 gal
  -----------------------------------------------------------
  10208                 94.93     52.97    134.49      10.832
  -----------------------------------------------------------
  System                94.93     52.97    134.49      10.832
  
  
  ********************
  Link Flow Summary
  ********************
  
  -----------------------------------------------------------------------------
                                 Maximum  Time of Max   Maximum    Max/    Max/
                                  |Flow|   Occurrence   |Veloc|    Full    Full
  Link                 Type          CFS  days hr:min    ft/sec    Flow   Depth
  -----------------------------------------------------------------------------
  8040                 CONDUIT     46.58     0  00:22      7.13    0.63    1.00
  8060                 CONDUIT     44.82     0  03:09      4.89    0.84    1.00
  8100                 CONDUIT     53.75     0  00:40      6.95    0.69    0.63
  8130                 CONDUIT     51.47     0  01:08      5.00    0.73    0.63
  1030                 CONDUIT    134.49     0  01:41      5.97    0.04    0.30
  1570                 CONDUIT     60.74     0  01:29      4.83    0.49    0.52
  1600                 CONDUIT     73.92     0  01:53      5.21    0.50    0.51
  1630                 CONDUIT    134.59     0  01:33      5.84    0.06    0.33
  1602                 CONDUIT     74.02     0  01:03      3.77    1.71    1.00
  90010                PUMP        10.00     0  00:40              0.50
  
  
  ***************************
  Flow Classification Summary
  ***************************
  
  -------------------------------------------------------------------------------------
                      Adjusted    ---------- Fraction of Time in Flow Class ---------- 
                       /Actual         Up    Down  Sub   Sup   Up    Down  Norm  Inlet 
  Conduit               Length    Dry  Dry   Dry   Crit  Crit  Crit  Crit  Ltd   Ctrl  
  -------------------------------------------------------------------------------------
  8040                    1.00   0.00  0.00  0.00  0.97  0.03  0.00  0.00  0.66  0.00
  8060                    1.00   0.00  0.00  0.00  0.42  0.00  0.00  0.58  0.07  0.00
  8100                    1.00   0.00  0.00  0.00  0.97  0.03  0.00  0.00  0.92  0.00
  8130                    1.00   0.00  0.00  0.00  1.00  0.00  0.00  0.00  0.63  0.00
  1030                    1.00   0.01  0.00  0.00  0.99  0.00  0.00  0.00  0.00  0.00
  1570                    1.00   0.00  0.00  0.00  0.98  0.02  0.00  0.00  0.93  0.00
  1600                    1.00   0.00  0.00  0.00  1.00  0.00  0.00  0.00  0.46  0.00
  1630                    1.00   0.00  0.00  0.00  0.96  0.04  0.00  0.00  0.44  0.00
  1602                    1.00   0.00  0.44  0.00  0.55  0.00  0.00  0.00  0.49  0.00
  
  
  *************************
  Conduit Surcharge Summary
  *************************
  
  ----------------------------------------------------------------------------
                                                           Hours        Hours 
                         --------- Hours Full --------   Above Full   Capacity
  Conduit                Both Ends  Upstream  Dnstream   Normal Flow   Limited
  ----------------------------------------------------------------------------
  8040                        2.18      2.18      2.46      0.01         0.01
  8060                        2.46      2.46      2.73      0.01         0.01
  1602                        0.01      2.91      0.01      2.87         2.57
  
  
  ***************
  Pumping Summary
  ***************
  
  ---------------------------------------------------------------------------------------------------------
                                                  Min       Avg       Max     Total     Power    % Time Off
                        Percent   Number of      Flow      Flow      Flow    Volume     Usage    Pump Curve
  Pump                 Utilized   Start-Ups       CFS       CFS       CFS  10^6 gal     Kw-hr    Low   High
  ---------------------------------------------------------------------------------------------------------
  90010                   99.93           1      0.00      4.38     10.00     0.942     37.88    0.0   68.3
  

  Analysis begun on:  Tue Nov 20 16:51:07 2018
  Analysis ended on:  Tue Nov 20 16:51:07 2018
  Total elapsed time: < 1 sec