
  EPA STORM WATER MANAGEMENT MODEL - VERSION 5.1 (Build 5.1.013)
  --------------------------------------------------------------

   Example 8 of Extran Manual - 
   Various Conduit Types 
  
  
  *********************************************************
  NOTE: The summary statistics displayed in this report are
  based on results found at every computational time step,  
  not just on results from each reporting time step.
  *********************************************************
  
  ****************
  Analysis Options
  ****************
  Flow Units ............... CFS
  Process Models:
    Rainfall/Runoff ........ NO
    RDII ................... NO
    Snowmelt ............... NO
    Groundwater ............ NO
    Flow Routing ........... YES
    Ponding Allowed ........ NO
    Water Quality .......... NO
  Flow Routing Method ...... DYNWAVE
  Surcharge Method ......... EXTRAN
  Starting Date ............ 01/01/2002 00:00:00
  Ending Date .............. 01/01/2002 02:01:00
  Antecedent Dry Days ...... 0.0
  Report Time Step ......... 00:10:00
  Routing Time Step ........ 20.00 sec
  Variable Time Step ....... NO
  Maximum Trials ........... 8
  Number of Threads ........ 1
  Head Tolerance ........... 0.005000 ft
  
  
  **************************        Volume        Volume
  Flow Routing Continuity        acre-feet      10^6 gal
  **************************     ---------     ---------
  Dry Weather Inflow .......         3.328         1.085
  Wet Weather Inflow .......         0.000         0.000
  Groundwater Inflow .......         0.000         0.000
  RDII Inflow ..............         0.000         0.000
  External Inflow ..........         1.909         0.622
  External Outflow .........         4.796         1.563
  Flooding Loss ............         0.000         0.000
  Evaporation Loss .........         0.000         0.000
  Exfiltration Loss ........         0.000         0.000
  Initial Stored Volume ....         0.994         0.324
  Final Stored Volume ......         1.460         0.476
  Continuity Error (%) .....        -0.398
  
  
  *************************
  Highest Continuity Errors
  *************************
  Node 30081 (5.22%)
  Node 30082 (3.14%)
  
  
  ********************************
  Highest Flow Instability Indexes
  ********************************
  All links are stable.
  
  
  *************************
  Routing Time Step Summary
  *************************
  Minimum Time Step           :    19.00 sec
  Average Time Step           :    20.00 sec
  Maximum Time Step           :    20.00 sec
  Percent in Steady State     :     0.00
  Average Iterations per Step :     2.03
  Percent Not Converging      :     0.00
  
  
  ******************
  Node Depth Summary
  ******************
  
  ---------------------------------------------------------------------------------
                                 Average  Maximum  Maximum  Time of Max    Reported
                                   Depth    Depth      HGL   Occurrence   Max Depth
  Node                 Type         Feet     Feet     Feet  days hr:min        Feet
  ---------------------------------------------------------------------------------
  30001                JUNCTION     0.62     1.66   803.66     0  00:30        1.65
  30002                JUNCTION     0.53     1.51   802.51     0  00:32        1.45
  30003                JUNCTION     0.62     1.50   802.00     0  00:34        1.42
  30004                JUNCTION     0.94     2.52   805.02     0  00:31        2.50
  30005                JUNCTION     0.78     1.76   803.26     0  00:33        1.69
  30006                JUNCTION     0.53     1.42   801.42     0  00:35        1.34
  30007                JUNCTION     0.77     1.77   804.77     0  00:32        1.73
  30081                JUNCTION     1.16     1.50   800.50     0  00:40        1.50
  30082                JUNCTION     1.48     1.84   799.84     0  00:52        1.83
  30083                OUTFALL      2.00     2.00   798.00     0  00:00        2.00
  
  
  *******************
  Node Inflow Summary
  *******************
  
  -------------------------------------------------------------------------------------------------
                                  Maximum  Maximum                  Lateral       Total        Flow
                                  Lateral    Total  Time of Max      Inflow      Inflow     Balance
                                   Inflow   Inflow   Occurrence      Volume      Volume       Error
  Node                 Type           CFS      CFS  days hr:min    10^6 gal    10^6 gal     Percent
  -------------------------------------------------------------------------------------------------
  30001                JUNCTION     15.00    15.00     0  00:30       0.222       0.222      -0.189
  30002                JUNCTION      0.00    14.85     0  00:31           0       0.223       0.178
  30003                JUNCTION      0.00    14.40     0  00:33           0       0.222       0.544
  30004                JUNCTION     18.00    18.00     0  00:30       0.267       0.267      -0.279
  30005                JUNCTION      0.00    17.78     0  00:31           0       0.267       0.462
  30006                JUNCTION      0.00    39.54     0  00:33           0        0.62       0.099
  30007                JUNCTION      9.00     9.00     0  00:30       0.133       0.133       0.098
  30081                JUNCTION     20.00    59.24     0  00:35        1.08         1.7       5.508
  30082                JUNCTION      0.00    56.05     0  00:40           0        1.62       3.244
  30083                OUTFALL       0.00    48.39     0  00:52           0        1.56       0.000
  
  
  **********************
  Node Surcharge Summary
  **********************
  
  No nodes were surcharged.
  
  
  *********************
  Node Flooding Summary
  *********************
  
  No nodes were flooded.
  
  
  ***********************
  Outfall Loading Summary
  ***********************
  
  -----------------------------------------------------------
                         Flow       Avg       Max       Total
                         Freq      Flow      Flow      Volume
  Outfall Node           Pcnt       CFS       CFS    10^6 gal
  -----------------------------------------------------------
  30083                100.00     28.81     48.39       1.564
  -----------------------------------------------------------
  System               100.00     28.81     48.39       1.564
  
  
  ********************
  Link Flow Summary
  ********************
  
  -----------------------------------------------------------------------------
                                 Maximum  Time of Max   Maximum    Max/    Max/
                                  |Flow|   Occurrence   |Veloc|    Full    Full
  Link                 Type          CFS  days hr:min    ft/sec    Flow   Depth
  -----------------------------------------------------------------------------
  10001                CONDUIT     14.85     0  00:31      3.95    0.58    0.53
  10002                CONDUIT     14.40     0  00:33      2.75    0.51    0.50
  10003                CONDUIT     14.06     0  00:34      2.90    0.34    0.37
  10004                CONDUIT     17.78     0  00:31      4.51    0.61    0.53
  10005                CONDUIT     17.17     0  00:33      3.71    0.46    0.35
  10006                CONDUIT     39.24     0  00:35      3.26    0.15    0.29
  10007                CONDUIT      8.52     0  00:32      3.23    0.30    0.48
  10081                CHANNEL     56.05     0  00:40      1.06    0.09    0.33
  10082                CHANNEL     48.39     0  00:52      1.41    0.05    0.32
  
  
  ***************************
  Flow Classification Summary
  ***************************
  
  -------------------------------------------------------------------------------------
                      Adjusted    ---------- Fraction of Time in Flow Class ---------- 
                       /Actual         Up    Down  Sub   Sup   Up    Down  Norm  Inlet 
  Conduit               Length    Dry  Dry   Dry   Crit  Crit  Crit  Crit  Ltd   Ctrl  
  -------------------------------------------------------------------------------------
  10001                   1.00   0.00  0.00  0.00  0.97  0.03  0.00  0.00  0.45  0.00
  10002                   1.00   0.01  0.00  0.00  0.99  0.00  0.00  0.00  0.51  0.00
  10003                   1.00   0.01  0.01  0.00  0.98  0.00  0.00  0.00  0.04  0.00
  10004                   1.00   0.00  0.00  0.00  1.00  0.00  0.00  0.00  0.49  0.00
  10005                   1.00   0.01  0.00  0.00  0.00  0.00  0.00  0.99  0.00  0.00
  10006                   1.00   0.00  0.01  0.00  0.99  0.00  0.00  0.00  0.99  0.00
  10007                   1.00   0.00  0.00  0.00  0.00  0.00  0.00  1.00  0.00  0.00
  10081                   1.00   0.00  0.00  0.00  1.00  0.00  0.00  0.00  1.00  0.00
  10082                   1.00   0.00  0.00  0.00  1.00  0.00  0.00  0.00  1.00  0.00
  
  
  *************************
  Conduit Surcharge Summary
  *************************
  
  No conduits were surcharged.
  

  Analysis begun on:  Tue Nov 20 16:51:04 2018
  Analysis ended on:  Tue Nov 20 16:51:04 2018
  Total elapsed time: < 1 sec