
  EPA STORM WATER MANAGEMENT MODEL - VERSION 5.1 (Build 5.1.013)
  --------------------------------------------------------------

  Example 6 of Extran Manual - 
  Type 1 Pump 
  
  WARNING 04: minimum elevation drop used for Conduit 8061
  
  *********************************************************
  NOTE: The summary statistics displayed in this report are
  based on results found at every computational time step,  
  not just on results from each reporting time step.
  *********************************************************
  
  ****************
  Analysis Options
  ****************
  Flow Units ............... CFS
  Process Models:
    Rainfall/Runoff ........ NO
    RDII ................... NO
    Snowmelt ............... NO
    Groundwater ............ NO
    Flow Routing ........... YES
    Ponding Allowed ........ NO
    Water Quality .......... NO
  Flow Routing Method ...... DYNWAVE
  Surcharge Method ......... EXTRAN
  Starting Date ............ 01/01/2002 00:00:00
  Ending Date .............. 01/01/2002 08:00:00
  Antecedent Dry Days ...... 0.0
  Report Time Step ......... 00:15:00
  Routing Time Step ........ 20.00 sec
  Variable Time Step ....... NO
  Maximum Trials ........... 8
  Number of Threads ........ 1
  Head Tolerance ........... 0.005000 ft
  
  
  **************************        Volume        Volume
  Flow Routing Continuity        acre-feet      10^6 gal
  **************************     ---------     ---------
  Dry Weather Inflow .......         0.000         0.000
  Wet Weather Inflow .......         0.000         0.000
  Groundwater Inflow .......         0.000         0.000
  RDII Inflow ..............         0.000         0.000
  External Inflow ..........        33.470        10.907
  External Outflow .........        26.552         8.652
  Flooding Loss ............         6.840         2.229
  Evaporation Loss .........         0.000         0.000
  Exfiltration Loss ........         0.000         0.000
  Initial Stored Volume ....         0.001         0.000
  Final Stored Volume ......         0.098         0.032
  Continuity Error (%) .....        -0.054
  
  
  ********************************
  Highest Flow Instability Indexes
  ********************************
  Link 8061 (7)
  Link 90011 (3)
  Link 1602 (2)
  
  
  *************************
  Routing Time Step Summary
  *************************
  Minimum Time Step           :    20.00 sec
  Average Time Step           :    20.00 sec
  Maximum Time Step           :    20.00 sec
  Percent in Steady State     :     0.00
  Average Iterations per Step :     2.64
  Percent Not Converging      :     8.61
  
  
  ******************
  Node Depth Summary
  ******************
  
  ---------------------------------------------------------------------------------
                                 Average  Maximum  Maximum  Time of Max    Reported
                                   Depth    Depth      HGL   Occurrence   Max Depth
  Node                 Type         Feet     Feet     Feet  days hr:min        Feet
  ---------------------------------------------------------------------------------
  80408                JUNCTION     0.90     2.35   126.95     0  00:18        2.26
  80608                JUNCTION     1.34     3.14   121.44     0  03:00        3.14
  81009                JUNCTION     1.11     2.88   131.08     0  00:33        2.86
  81309                JUNCTION     1.23     2.80   120.30     0  01:22        2.80
  82309                JUNCTION     1.73     4.22   116.52     0  00:32        4.07
  10309                JUNCTION     1.40     2.59   104.19     0  02:23        2.59
  15009                JUNCTION     1.46     3.08   114.58     0  01:45        3.08
  16009                JUNCTION     1.47     2.77   104.77     0  02:14        2.77
  16109                JUNCTION     0.99     2.21   105.01     0  02:18        2.21
  82310                JUNCTION    18.06    42.70   116.30     0  00:28       42.70
  10208                OUTFALL      1.23     2.37    92.27     0  02:23        2.37
  
  
  *******************
  Node Inflow Summary
  *******************
  
  -------------------------------------------------------------------------------------------------
                                  Maximum  Maximum                  Lateral       Total        Flow
                                  Lateral    Total  Time of Max      Inflow      Inflow     Balance
                                   Inflow   Inflow   Occurrence      Volume      Volume       Error
  Node                 Type           CFS      CFS  days hr:min    10^6 gal    10^6 gal     Percent
  -------------------------------------------------------------------------------------------------
  80408                JUNCTION     45.00    45.00     0  00:15        3.64        3.64      -0.169
  80608                JUNCTION      0.00    46.45     0  00:22           0        3.64       0.474
  81009                JUNCTION     50.00    50.00     0  00:15        4.04        4.04      -0.489
  81309                JUNCTION      0.00    52.78     0  00:45           0        4.06       0.541
  82309                JUNCTION     40.00    85.00     0  03:00        3.23        6.86      -0.502
  10309                JUNCTION      0.00   103.58     0  02:12           0        8.66       0.126
  15009                JUNCTION      0.00    70.01     0  01:22           0        5.97      -0.119
  16009                JUNCTION      0.00   103.58     0  02:08           0        8.69       0.263
  16109                JUNCTION      0.00    33.58     0  02:17           0        2.73       0.867
  82310                JUNCTION      0.00    73.75     0  00:34           0        4.16      -0.057
  10208                OUTFALL       0.00   103.58     0  02:23           0        8.65       0.000
  
  
  **********************
  Node Surcharge Summary
  **********************
  
  Surcharging occurs when water rises above the top of the highest conduit.
  ---------------------------------------------------------------------
                                               Max. Height   Min. Depth
                                   Hours       Above Crown    Below Rim
  Node                 Type      Surcharged           Feet         Feet
  ---------------------------------------------------------------------
  82310                JUNCTION        2.72          0.000        0.000
  
  
  *********************
  Node Flooding Summary
  *********************
  
  Flooding refers to all water that overflows a node, whether it ponds or not.
  --------------------------------------------------------------------------
                                                             Total   Maximum
                                 Maximum   Time of Max       Flood    Ponded
                        Hours       Rate    Occurrence      Volume     Depth
  Node                 Flooded       CFS   days hr:min    10^6 gal      Feet
  --------------------------------------------------------------------------
  82310                   2.72     53.74      0  00:35       2.229     0.000
  
  
  ***********************
  Outfall Loading Summary
  ***********************
  
  -----------------------------------------------------------
                         Flow       Avg       Max       Total
                         Freq      Flow      Flow      Volume
  Outfall Node           Pcnt       CFS       CFS    10^6 gal
  -----------------------------------------------------------
  10208                 95.63     42.00    103.58       8.652
  -----------------------------------------------------------
  System                95.63     42.00    103.58       8.652
  
  
  ********************
  Link Flow Summary
  ********************
  
  -----------------------------------------------------------------------------
                                 Maximum  Time of Max   Maximum    Max/    Max/
                                  |Flow|   Occurrence   |Veloc|    Full    Full
  Link                 Type          CFS  days hr:min    ft/sec    Flow   Depth
  -----------------------------------------------------------------------------
  8040                 CONDUIT     46.45     0  00:22      7.11    0.63    0.68
  8060                 CONDUIT     45.00     0  03:00      5.27    0.84    0.64
  8100                 CONDUIT     52.78     0  00:45      6.95    0.68    0.60
  8130                 CONDUIT     50.01     0  01:22      4.74    0.71    0.65
  1030                 CONDUIT    103.58     0  02:23      5.61    0.03    0.28
  1570                 CONDUIT     70.01     0  01:54     17.45    0.57    0.53
  1600                 CONDUIT     33.58     0  02:28      3.03    0.23    0.41
  1630                 CONDUIT    103.58     0  02:12      5.31    0.04    0.30
  1602                 CONDUIT     33.58     0  02:17      2.60    0.77    0.62
  8061                 CONDUIT     73.75     0  00:34     16.65    8.65    1.00
  90011                PUMP        20.00     0  00:02              1.00
  
  
  ***************************
  Flow Classification Summary
  ***************************
  
  -------------------------------------------------------------------------------------
                      Adjusted    ---------- Fraction of Time in Flow Class ---------- 
                       /Actual         Up    Down  Sub   Sup   Up    Down  Norm  Inlet 
  Conduit               Length    Dry  Dry   Dry   Crit  Crit  Crit  Crit  Ltd   Ctrl  
  -------------------------------------------------------------------------------------
  8040                    1.00   0.00  0.00  0.00  0.97  0.03  0.00  0.00  0.95  0.00
  8060                    1.00   0.00  0.00  0.00  0.02  0.00  0.00  0.98  0.00  0.00
  8100                    1.00   0.00  0.00  0.00  0.97  0.03  0.00  0.00  0.90  0.00
  8130                    1.00   0.00  0.00  0.00  1.00  0.00  0.00  0.00  0.94  0.00
  1030                    1.00   0.01  0.00  0.00  0.99  0.00  0.00  0.00  0.00  0.00
  1570                    1.00   0.00  0.00  0.00  0.97  0.03  0.00  0.00  0.57  0.00
  1600                    1.00   0.00  0.00  0.00  1.00  0.00  0.00  0.00  0.54  0.00
  1630                    1.00   0.00  0.00  0.00  0.96  0.04  0.00  0.00  0.45  0.00
  1602                    1.00   0.00  0.00  0.00  1.00  0.00  0.00  0.00  0.43  0.00
  8061                    1.00   0.00  0.00  0.00  0.40  0.00  0.00  0.59  0.02  0.00
  
  
  *************************
  Conduit Surcharge Summary
  *************************
  
  ----------------------------------------------------------------------------
                                                           Hours        Hours 
                         --------- Hours Full --------   Above Full   Capacity
  Conduit                Both Ends  Upstream  Dnstream   Normal Flow   Limited
  ----------------------------------------------------------------------------
  8061                        2.66      2.66      2.74      3.51         2.65
  
  
  ***************
  Pumping Summary
  ***************
  
  ---------------------------------------------------------------------------------------------------------
                                                  Min       Avg       Max     Total     Power    % Time Off
                        Percent   Number of      Flow      Flow      Flow    Volume     Usage    Pump Curve
  Pump                 Utilized   Start-Ups       CFS       CFS       CFS  10^6 gal     Kw-hr    Low   High
  ---------------------------------------------------------------------------------------------------------
  90011                  100.00           1      0.00      8.99     20.00     1.938     24.78    0.0   55.5
  

  Analysis begun on:  Tue Nov 20 16:51:03 2018
  Analysis ended on:  Tue Nov 20 16:51:03 2018
  Total elapsed time: < 1 sec