
  EPA STORM WATER MANAGEMENT MODEL - VERSION 5.1 (Build 5.1.013)
  --------------------------------------------------------------

  Example 4 of Extran Manual - 
  Weir 
  
  
  *********************************************************
  NOTE: The summary statistics displayed in this report are
  based on results found at every computational time step,  
  not just on results from each reporting time step.
  *********************************************************
  
  ****************
  Analysis Options
  ****************
  Flow Units ............... CFS
  Process Models:
    Rainfall/Runoff ........ NO
    RDII ................... NO
    Snowmelt ............... NO
    Groundwater ............ NO
    Flow Routing ........... YES
    Ponding Allowed ........ NO
    Water Quality .......... NO
  Flow Routing Method ...... DYNWAVE
  Surcharge Method ......... SLOT
  Starting Date ............ 01/01/2002 00:00:00
  Ending Date .............. 01/01/2002 08:00:00
  Antecedent Dry Days ...... 0.0
  Report Time Step ......... 00:15:00
  Routing Time Step ........ 20.00 sec
  Variable Time Step ....... NO
  Maximum Trials ........... 8
  Number of Threads ........ 1
  Head Tolerance ........... 0.005000 ft
  
  
  **************************        Volume        Volume
  Flow Routing Continuity        acre-feet      10^6 gal
  **************************     ---------     ---------
  Dry Weather Inflow .......         0.000         0.000
  Wet Weather Inflow .......         0.000         0.000
  Groundwater Inflow .......         0.000         0.000
  RDII Inflow ..............         0.000         0.000
  External Inflow ..........        33.470        10.907
  External Outflow .........        33.384        10.879
  Flooding Loss ............         0.000         0.000
  Evaporation Loss .........         0.000         0.000
  Exfiltration Loss ........         0.000         0.000
  Initial Stored Volume ....         0.000         0.000
  Final Stored Volume ......         0.119         0.039
  Continuity Error (%) .....        -0.100
  
  
  *************************
  Highest Continuity Errors
  *************************
  Node 80608 (1.35%)
  
  
  ********************************
  Highest Flow Instability Indexes
  ********************************
  All links are stable.
  
  
  *************************
  Routing Time Step Summary
  *************************
  Minimum Time Step           :    20.00 sec
  Average Time Step           :    20.00 sec
  Maximum Time Step           :    20.00 sec
  Percent in Steady State     :     0.00
  Average Iterations per Step :     2.03
  Percent Not Converging      :     0.00
  
  
  ******************
  Node Depth Summary
  ******************
  
  ---------------------------------------------------------------------------------
                                 Average  Maximum  Maximum  Time of Max    Reported
                                   Depth    Depth      HGL   Occurrence   Max Depth
  Node                 Type         Feet     Feet     Feet  days hr:min        Feet
  ---------------------------------------------------------------------------------
  80408                JUNCTION     1.04     2.97   127.57     0  03:00        2.97
  80608                JUNCTION     2.37     7.14   125.44     0  03:00        7.14
  81009                JUNCTION     1.11     2.85   131.05     0  00:31        2.84
  81309                JUNCTION     1.25     2.94   120.44     0  00:53        2.91
  82309                JUNCTION     4.02    10.49   122.79     0  03:00       10.49
  10309                JUNCTION     1.50     2.86   104.46     0  03:01        2.86
  15009                JUNCTION     1.35     3.11   114.61     0  03:00        3.11
  16009                JUNCTION     1.58     3.05   105.05     0  03:01        3.05
  16109                JUNCTION     1.31     2.77   105.57     0  03:00        2.77
  10208                OUTFALL      1.33     2.63    92.53     0  03:02        2.63
  
  
  *******************
  Node Inflow Summary
  *******************
  
  -------------------------------------------------------------------------------------------------
                                  Maximum  Maximum                  Lateral       Total        Flow
                                  Lateral    Total  Time of Max      Inflow      Inflow     Balance
                                   Inflow   Inflow   Occurrence      Volume      Volume       Error
  Node                 Type           CFS      CFS  days hr:min    10^6 gal    10^6 gal     Percent
  -------------------------------------------------------------------------------------------------
  80408                JUNCTION     45.00    45.00     0  00:15        3.64        3.64      -0.085
  80608                JUNCTION      0.00    46.76     0  00:22           0        3.64       1.365
  81009                JUNCTION     50.00    50.00     0  00:15        4.04        4.04      -0.528
  81309                JUNCTION      0.00    53.70     0  00:40           0        4.06       0.307
  82309                JUNCTION     40.00    85.00     0  03:00        3.23        6.82      -0.608
  10309                JUNCTION      0.00   134.99     0  03:01           0        10.9       0.113
  15009                JUNCTION      0.00    76.00     0  01:05           0         5.8       0.071
  16009                JUNCTION      0.00   135.00     0  03:00           0        10.9       0.171
  16109                JUNCTION      0.00    60.07     0  03:00           0        5.11      -0.046
  10208                OUTFALL       0.00   134.99     0  03:02           0        10.9       0.000
  
  
  **********************
  Node Surcharge Summary
  **********************
  
  Surcharging occurs when water rises above the top of the highest conduit.
  ---------------------------------------------------------------------
                                               Max. Height   Min. Depth
                                   Hours       Above Crown    Below Rim
  Node                 Type      Surcharged           Feet         Feet
  ---------------------------------------------------------------------
  80608                JUNCTION        2.31          3.141        9.559
  82309                JUNCTION        2.67          4.293       32.207
  
  
  *********************
  Node Flooding Summary
  *********************
  
  No nodes were flooded.
  
  
  ***********************
  Outfall Loading Summary
  ***********************
  
  -----------------------------------------------------------
                         Flow       Avg       Max       Total
                         Freq      Flow      Flow      Volume
  Outfall Node           Pcnt       CFS       CFS    10^6 gal
  -----------------------------------------------------------
  10208                 94.24     53.58    134.99      10.878
  -----------------------------------------------------------
  System                94.24     53.58    134.99      10.878
  
  
  ********************
  Link Flow Summary
  ********************
  
  -----------------------------------------------------------------------------
                                 Maximum  Time of Max   Maximum    Max/    Max/
                                  |Flow|   Occurrence   |Veloc|    Full    Full
  Link                 Type          CFS  days hr:min    ft/sec    Flow   Depth
  -----------------------------------------------------------------------------
  8040                 CONDUIT     46.76     0  00:22      7.13    0.63    1.00
  8060                 CONDUIT     47.22     0  03:04      4.79    0.89    1.00
  8100                 CONDUIT     53.70     0  00:40      6.75    0.69    0.62
  8130                 CONDUIT     52.63     0  01:02      5.31    0.75    0.66
  1030                 CONDUIT    134.99     0  03:02      5.98    0.04    0.30
  1570                 CONDUIT     74.93     0  03:00      5.47    0.61    0.56
  1600                 CONDUIT     60.07     0  03:00      5.27    0.41    0.49
  1630                 CONDUIT    134.99     0  03:01      5.96    0.06    0.33
  1602                 CONDUIT     60.07     0  03:00      3.06    1.38    1.00
  90010                WEIR        24.93     0  03:00                      1.00
  
  
  ***************************
  Flow Classification Summary
  ***************************
  
  -------------------------------------------------------------------------------------
                      Adjusted    ---------- Fraction of Time in Flow Class ---------- 
                       /Actual         Up    Down  Sub   Sup   Up    Down  Norm  Inlet 
  Conduit               Length    Dry  Dry   Dry   Crit  Crit  Crit  Crit  Ltd   Ctrl  
  -------------------------------------------------------------------------------------
  8040                    1.00   0.00  0.00  0.00  0.97  0.03  0.00  0.00  0.70  0.00
  8060                    1.00   0.00  0.00  0.00  0.42  0.00  0.00  0.58  0.08  0.00
  8100                    1.00   0.00  0.00  0.00  0.97  0.03  0.00  0.00  0.92  0.00
  8130                    1.00   0.00  0.00  0.00  0.98  0.02  0.00  0.00  0.87  0.00
  1030                    1.00   0.03  0.00  0.00  0.97  0.00  0.00  0.00  0.00  0.00
  1570                    1.00   0.00  0.00  0.00  1.00  0.00  0.00  0.00  0.69  0.00
  1600                    1.00   0.00  0.00  0.00  0.98  0.02  0.00  0.00  0.51  0.00
  1630                    1.00   0.00  0.00  0.00  0.97  0.03  0.00  0.00  0.44  0.00
  1602                    1.00   0.00  0.00  0.00  1.00  0.00  0.00  0.00  0.00  0.00
  
  
  *************************
  Conduit Surcharge Summary
  *************************
  
  ----------------------------------------------------------------------------
                                                           Hours        Hours 
                         --------- Hours Full --------   Above Full   Capacity
  Conduit                Both Ends  Upstream  Dnstream   Normal Flow   Limited
  ----------------------------------------------------------------------------
  8040                        0.01      0.01      2.31      0.01         0.01
  8060                        2.31      2.31      2.67      0.01         0.01
  1602                        0.01      2.88      0.01      2.84         2.43
  

  Analysis begun on:  Tue Nov 20 16:51:06 2018
  Analysis ended on:  Tue Nov 20 16:51:06 2018
  Total elapsed time: < 1 sec