
  EPA STORM WATER MANAGEMENT MODEL - VERSION 5.1 (Build 5.1.013)
  --------------------------------------------------------------

  Example 1 of Extran Manual 
  
  
  *********************************************************
  NOTE: The summary statistics displayed in this report are
  based on results found at every computational time step,  
  not just on results from each reporting time step.
  *********************************************************
  
  ****************
  Analysis Options
  ****************
  Flow Units ............... CFS
  Process Models:
    Rainfall/Runoff ........ NO
    RDII ................... NO
    Snowmelt ............... NO
    Groundwater ............ NO
    Flow Routing ........... YES
    Ponding Allowed ........ NO
    Water Quality .......... NO
  Flow Routing Method ...... DYNWAVE
  Surcharge Method ......... SLOT
  Starting Date ............ 01/01/2002 00:00:00
  Ending Date .............. 01/01/2002 08:00:00
  Antecedent Dry Days ...... 0.0
  Report Time Step ......... 00:15:00
  Routing Time Step ........ 20.00 sec
  Variable Time Step ....... NO
  Maximum Trials ........... 8
  Number of Threads ........ 1
  Head Tolerance ........... 0.005000 ft
  
  
  **************************        Volume        Volume
  Flow Routing Continuity        acre-feet      10^6 gal
  **************************     ---------     ---------
  Dry Weather Inflow .......         0.000         0.000
  Wet Weather Inflow .......         0.000         0.000
  Groundwater Inflow .......         0.000         0.000
  RDII Inflow ..............         0.000         0.000
  External Inflow ..........        33.470        10.907
  External Outflow .........        31.607        10.300
  Flooding Loss ............         1.804         0.588
  Evaporation Loss .........         0.000         0.000
  Exfiltration Loss ........         0.000         0.000
  Initial Stored Volume ....         0.000         0.000
  Final Stored Volume ......         0.121         0.039
  Continuity Error (%) .....        -0.186
  
  
  *************************
  Highest Continuity Errors
  *************************
  Node 80608 (1.19%)
  
  
  ********************************
  Highest Flow Instability Indexes
  ********************************
  Link 8060 (2)
  Link 8040 (1)
  Link 1602 (1)
  
  
  *************************
  Routing Time Step Summary
  *************************
  Minimum Time Step           :    20.00 sec
  Average Time Step           :    20.00 sec
  Maximum Time Step           :    20.00 sec
  Percent in Steady State     :     0.00
  Average Iterations per Step :     2.19
  Percent Not Converging      :     0.35
  
  
  ******************
  Node Depth Summary
  ******************
  
  ---------------------------------------------------------------------------------
                                 Average  Maximum  Maximum  Time of Max    Reported
                                   Depth    Depth      HGL   Occurrence   Max Depth
  Node                 Type         Feet     Feet     Feet  days hr:min        Feet
  ---------------------------------------------------------------------------------
  80408                JUNCTION     3.89    12.85   137.45     0  00:48       12.60
  80608                JUNCTION     5.36    16.70   135.00     0  00:48       16.70
  81009                JUNCTION     1.11     2.85   131.05     0  00:32        2.84
  81309                JUNCTION     1.32     3.10   120.60     0  01:00        3.10
  82309                JUNCTION     7.41    21.53   133.83     0  00:49       21.18
  10309                JUNCTION     1.49     2.78   104.38     0  01:47        2.78
  15009                JUNCTION     1.13     2.45   113.95     0  01:35        2.45
  16009                JUNCTION     1.56     2.97   104.97     0  01:40        2.97
  16109                JUNCTION     1.42     3.03   105.83     0  01:44        3.03
  10208                OUTFALL      1.32     2.55    92.45     0  01:47        2.55
  
  
  *******************
  Node Inflow Summary
  *******************
  
  -------------------------------------------------------------------------------------------------
                                  Maximum  Maximum                  Lateral       Total        Flow
                                  Lateral    Total  Time of Max      Inflow      Inflow     Balance
                                   Inflow   Inflow   Occurrence      Volume      Volume       Error
  Node                 Type           CFS      CFS  days hr:min    10^6 gal    10^6 gal     Percent
  -------------------------------------------------------------------------------------------------
  80408                JUNCTION     45.00    45.00     0  00:15        3.64        3.64      -0.162
  80608                JUNCTION      0.00    46.83     0  00:22           0        3.64       1.201
  81009                JUNCTION     50.00    50.00     0  00:15        4.04        4.04      -0.539
  81309                JUNCTION      0.00    53.82     0  00:40           0        4.06       0.316
  82309                JUNCTION     40.00    84.07     0  00:33        3.23        6.24      -0.640
  10309                JUNCTION      0.00   125.61     0  01:39           0        10.3       0.126
  15009                JUNCTION      0.00    51.04     0  01:13           0        4.05       0.177
  16009                JUNCTION      0.00   125.63     0  01:35           0        10.3       0.180
  16109                JUNCTION      0.00    75.75     0  00:49           0        6.28      -0.121
  10208                OUTFALL       0.00   125.55     0  01:47           0        10.3       0.000
  
  
  **********************
  Node Surcharge Summary
  **********************
  
  Surcharging occurs when water rises above the top of the highest conduit.
  ---------------------------------------------------------------------
                                               Max. Height   Min. Depth
                                   Hours       Above Crown    Below Rim
  Node                 Type      Surcharged           Feet         Feet
  ---------------------------------------------------------------------
  80408                JUNCTION        2.34          8.853        0.547
  80608                JUNCTION        2.56         12.700        0.000
  82309                JUNCTION        2.81         15.335       21.165
  
  
  *********************
  Node Flooding Summary
  *********************
  
  Flooding refers to all water that overflows a node, whether it ponds or not.
  --------------------------------------------------------------------------
                                                             Total   Maximum
                                 Maximum   Time of Max       Flood    Ponded
                        Hours       Rate    Occurrence      Volume     Depth
  Node                 Flooded       CFS   days hr:min    10^6 gal      Feet
  --------------------------------------------------------------------------
  80608                   2.24     10.55      0  00:49       0.588     0.000
  
  
  ***********************
  Outfall Loading Summary
  ***********************
  
  -----------------------------------------------------------
                         Flow       Avg       Max       Total
                         Freq      Flow      Flow      Volume
  Outfall Node           Pcnt       CFS       CFS    10^6 gal
  -----------------------------------------------------------
  10208                 94.24     50.73    125.55      10.299
  -----------------------------------------------------------
  System                94.24     50.73    125.55      10.299
  
  
  ********************
  Link Flow Summary
  ********************
  
  -----------------------------------------------------------------------------
                                 Maximum  Time of Max   Maximum    Max/    Max/
                                  |Flow|   Occurrence   |Veloc|    Full    Full
  Link                 Type          CFS  days hr:min    ft/sec    Flow   Depth
  -----------------------------------------------------------------------------
  8040                 CONDUIT     46.83     0  00:22      7.13    0.64    1.00
  8060                 CONDUIT     44.07     0  00:33      4.78    0.83    1.00
  8100                 CONDUIT     53.82     0  00:40      6.75    0.69    0.64
  8130                 CONDUIT     51.04     0  01:13      5.55    0.72    0.61
  1030                 CONDUIT    125.55     0  01:47      5.87    0.04    0.30
  1570                 CONDUIT     50.48     0  01:35      4.34    0.41    0.49
  1600                 CONDUIT     75.16     0  01:57      5.58    0.51    0.50
  1630                 CONDUIT    125.61     0  01:39      5.81    0.05    0.32
  1602                 CONDUIT     75.75     0  00:49      3.86    1.75    1.00
  
  
  ***************************
  Flow Classification Summary
  ***************************
  
  -------------------------------------------------------------------------------------
                      Adjusted    ---------- Fraction of Time in Flow Class ---------- 
                       /Actual         Up    Down  Sub   Sup   Up    Down  Norm  Inlet 
  Conduit               Length    Dry  Dry   Dry   Crit  Crit  Crit  Crit  Ltd   Ctrl  
  -------------------------------------------------------------------------------------
  8040                    1.00   0.00  0.00  0.00  0.97  0.03  0.00  0.00  0.65  0.00
  8060                    1.00   0.00  0.00  0.00  0.44  0.00  0.00  0.56  0.08  0.00
  8100                    1.00   0.00  0.00  0.00  0.97  0.03  0.00  0.00  0.92  0.00
  8130                    1.00   0.00  0.00  0.00  0.97  0.02  0.00  0.00  0.59  0.00
  1030                    1.00   0.03  0.00  0.00  0.97  0.00  0.00  0.00  0.00  0.00
  1570                    1.00   0.00  0.00  0.00  1.00  0.00  0.00  0.00  0.96  0.00
  1600                    1.00   0.00  0.00  0.00  0.98  0.02  0.00  0.00  0.51  0.00
  1630                    1.00   0.00  0.00  0.00  0.97  0.03  0.00  0.00  0.44  0.00
  1602                    1.00   0.00  0.00  0.00  1.00  0.00  0.00  0.00  0.00  0.00
  
  
  *************************
  Conduit Surcharge Summary
  *************************
  
  ----------------------------------------------------------------------------
                                                           Hours        Hours 
                         --------- Hours Full --------   Above Full   Capacity
  Conduit                Both Ends  Upstream  Dnstream   Normal Flow   Limited
  ----------------------------------------------------------------------------
  8040                        2.35      2.35      2.56      0.01         0.01
  8060                        2.56      2.56      2.81      0.01         0.01
  1602                        0.01      2.99      0.01      2.95         2.66
  

  Analysis begun on:  Tue Nov 20 16:51:04 2018
  Analysis ended on:  Tue Nov 20 16:51:05 2018
  Total elapsed time: 00:00:01