
  EPA STORM WATER MANAGEMENT MODEL - VERSION 5.1 (Build 5.1.013)
  --------------------------------------------------------------

  Flushing gate control scenario 2 
  
  WARNING 04: minimum elevation drop used for Conduit C1
  
  *************
  Element Count
  *************
  Number of rain gages ...... 0
  Number of subcatchments ... 0
  Number of nodes ........... 115
  Number of links ........... 114
  Number of pollutants ...... 0
  Number of land uses ....... 0
  
  
  ************
  Node Summary
  ************
                                           Invert      Max.    Ponded    External
  Name                 Type                 Elev.     Depth      Area    Inflow  
  -------------------------------------------------------------------------------
  3rdWinflow           JUNCTION            -28.94     18.00       0.0
  J1                   JUNCTION            -40.10     18.00       0.0
  J10                  JUNCTION            -42.85     18.00       0.0
  J100                 JUNCTION            -25.83     18.00       0.0
  J101                 JUNCTION            -26.14     18.00       0.0
  J102                 JUNCTION            -26.45     18.00       0.0
  J103                 JUNCTION            -26.76     18.00       0.0
  J104                 JUNCTION            -27.07     18.00       0.0
  J105                 JUNCTION            -27.38     18.00       0.0
  J106                 JUNCTION            -27.69     18.00       0.0
  J107                 JUNCTION            -28.01     18.00       0.0
  J108                 JUNCTION            -28.32     18.00       0.0
  J109                 JUNCTION            -28.63     18.00       0.0
  J11                  JUNCTION            -43.15     18.00       0.0
  J12                  JUNCTION            -43.46     18.00       0.0
  J13                  JUNCTION            -43.77     18.00       0.0
  J14                  JUNCTION            -44.07     18.00       0.0
  J15                  JUNCTION            -44.38     18.00       0.0
  J16                  JUNCTION            -44.68     18.00       0.0
  J17                  JUNCTION            -44.99     18.00       0.0
  J18                  JUNCTION            -45.30     18.00       0.0
  J19                  JUNCTION            -45.60     18.00       0.0
  J2                   JUNCTION            -40.40     18.00       0.0
  J20                  JUNCTION            -45.91     18.00       0.0
  J21                  JUNCTION            -46.21     18.00       0.0
  J22                  JUNCTION            -46.52     18.00       0.0
  J23                  JUNCTION            -46.83     18.00       0.0
  J24                  JUNCTION            -47.13     18.00       0.0
  J25                  JUNCTION            -47.44     18.00       0.0
  J26                  JUNCTION            -47.74     18.00       0.0
  J27                  JUNCTION            -48.05     18.00       0.0
  J28                  JUNCTION            -48.36     18.00       0.0
  J29                  JUNCTION            -48.66     18.00       0.0
  J3                   JUNCTION            -40.71     18.00       0.0
  J30                  JUNCTION            -48.97     18.00       0.0
  J31                  JUNCTION            -49.27     18.00       0.0
  J32                  JUNCTION            -49.58     18.00       0.0
  J33                  JUNCTION            -49.88     18.00       0.0
  J34                  JUNCTION            -50.19     18.00       0.0
  J35                  JUNCTION            -50.50     18.00       0.0
  J36                  JUNCTION            -50.80     18.00       0.0
  J37                  JUNCTION            -51.11     18.00       0.0
  J38                  JUNCTION            -51.41     18.00       0.0
  J39                  JUNCTION            -29.26     18.00       0.0
  J4                   JUNCTION            -41.01     18.00       0.0
  J40                  JUNCTION            -29.58     18.00       0.0
  J41                  JUNCTION            -29.90     18.00       0.0
  J42                  JUNCTION            -30.22     18.00       0.0
  J43                  JUNCTION            -30.54     18.00       0.0
  J44                  JUNCTION            -30.85     18.00       0.0
  J45                  JUNCTION            -31.17     18.00       0.0
  J46                  JUNCTION            -31.49     18.00       0.0
  J47                  JUNCTION            -31.81     18.00       0.0
  J48                  JUNCTION            -32.13     18.00       0.0
  J49                  JUNCTION            -32.45     18.00       0.0
  J5                   JUNCTION            -41.32     18.00       0.0
  J50                  JUNCTION            -32.77     18.00       0.0
  J51                  JUNCTION            -33.09     18.00       0.0
  J52                  JUNCTION            -33.41     18.00       0.0
  J53                  JUNCTION            -33.73     18.00       0.0
  J54                  JUNCTION            -34.05     18.00       0.0
  J55                  JUNCTION            -34.36     18.00       0.0
  J56                  JUNCTION            -34.68     18.00       0.0
  J57                  JUNCTION            -35.00     18.00       0.0
  J58                  JUNCTION            -35.32     18.00       0.0
  J59                  JUNCTION            -35.64     18.00       0.0
  J6                   JUNCTION            -41.63     18.00       0.0
  J60                  JUNCTION            -35.96     18.00       0.0
  J61                  JUNCTION            -36.28     18.00       0.0
  J62                  JUNCTION            -36.60     18.00       0.0
  J63                  JUNCTION            -36.92     18.00       0.0
  J64                  JUNCTION            -37.24     18.00       0.0
  J65                  JUNCTION            -37.56     18.00       0.0
  J66                  JUNCTION            -37.88     18.00       0.0
  J67                  JUNCTION            -38.19     18.00       0.0
  J68                  JUNCTION            -38.51     18.00       0.0
  J69                  JUNCTION            -38.83     18.00       0.0
  J7                   JUNCTION            -41.93     18.00       0.0
  J70                  JUNCTION            -39.15     18.00       0.0
  J71                  JUNCTION            -39.47     18.00       0.0
  J72                  JUNCTION            -17.11     18.00       0.0
  J73                  JUNCTION            -17.42     18.00       0.0
  J74                  JUNCTION            -17.73     18.00       0.0
  J75                  JUNCTION            -18.05     18.00       0.0
  J76                  JUNCTION            -18.36     18.00       0.0
  J77                  JUNCTION            -18.67     18.00       0.0
  J78                  JUNCTION            -18.98     18.00       0.0
  J79                  JUNCTION            -19.29     18.00       0.0
  J8                   JUNCTION            -42.24     18.00       0.0
  J80                  JUNCTION            -19.60     18.00       0.0
  J81                  JUNCTION            -19.91     18.00       0.0
  J82                  JUNCTION            -20.22     18.00       0.0
  J83                  JUNCTION            -20.54     18.00       0.0
  J84                  JUNCTION            -20.85     18.00       0.0
  J85                  JUNCTION            -21.16     18.00       0.0
  J86                  JUNCTION            -21.47     18.00       0.0
  J87                  JUNCTION            -21.78     18.00       0.0
  J88                  JUNCTION            -22.09     18.00       0.0
  J89                  JUNCTION            -22.40     18.00       0.0
  J9                   JUNCTION            -42.54     18.00       0.0
  J90                  JUNCTION            -22.71     18.00       0.0
  J91                  JUNCTION            -23.03     18.00       0.0
  J92                  JUNCTION            -23.34     18.00       0.0
  J93                  JUNCTION            -23.65     18.00       0.0
  J94                  JUNCTION            -23.96     18.00       0.0
  J95                  JUNCTION            -24.27     18.00       0.0
  J96                  JUNCTION            -24.58     18.00       0.0
  J97                  JUNCTION            -24.89     18.00       0.0
  J98                  JUNCTION            -25.20     18.00       0.0
  J99                  JUNCTION            -25.52     18.00       0.0
  J110                 OUTFALL               0.00      1.00       0.0
  11thNWdrop           STORAGE             -39.79     69.09       0.0
  BALLARD_DS           STORAGE             -70.00     98.00       0.0
  East_Portal          STORAGE             -16.80     61.80       0.0
  SU1                  STORAGE             -16.80     61.80       0.0
  
  
  ************
  Link Summary
  ************
  Name             From Node        To Node          Type            Length    %Slope Roughness
  ---------------------------------------------------------------------------------------------
  C1               BALLARD_DS       J110             CONDUIT          400.0    0.0003    0.0100
  C1_1             11thNWdrop       J1               CONDUIT          120.3    0.2578    0.0130
  C1_10            J9               J10              CONDUIT          120.3    0.2578    0.0130
  C1_100           J97              J98              CONDUIT          119.8    0.2588    0.0130
  C1_101           J98              J99              CONDUIT          119.8    0.2672    0.0130
  C1_102           J99              J100             CONDUIT          119.8    0.2588    0.0130
  C1_103           J100             J101             CONDUIT          119.8    0.2588    0.0130
  C1_104           J101             J102             CONDUIT          119.8    0.2588    0.0130
  C1_105           J102             J103             CONDUIT          119.8    0.2588    0.0130
  C1_106           J103             J104             CONDUIT          119.8    0.2588    0.0130
  C1_107           J104             J105             CONDUIT          119.8    0.2588    0.0130
  C1_108           J105             J106             CONDUIT          119.8    0.2588    0.0130
  C1_109           J106             J107             CONDUIT          119.8    0.2672    0.0130
  C1_11            J10              J11              CONDUIT          120.3    0.2495    0.0130
  C1_110           J107             J108             CONDUIT          119.8    0.2588    0.0130
  C1_111           J108             J109             CONDUIT          119.8    0.2588    0.0130
  C1_112           J109             3rdWinflow       CONDUIT          119.8    0.2588    0.0130
  C1_12            J11              J12              CONDUIT          120.3    0.2578    0.0130
  C1_13            J12              J13              CONDUIT          120.3    0.2578    0.0130
  C1_14            J13              J14              CONDUIT          120.3    0.2495    0.0130
  C1_15            J14              J15              CONDUIT          120.3    0.2578    0.0130
  C1_16            J15              J16              CONDUIT          120.3    0.2495    0.0130
  C1_17            J16              J17              CONDUIT          120.3    0.2578    0.0130
  C1_18            J17              J18              CONDUIT          120.3    0.2578    0.0130
  C1_19            J18              J19              CONDUIT          120.3    0.2495    0.0130
  C1_2             J1               J2               CONDUIT          120.3    0.2495    0.0130
  C1_20            J19              J20              CONDUIT          120.3    0.2578    0.0130
  C1_21            J20              J21              CONDUIT          120.3    0.2495    0.0130
  C1_22            J21              J22              CONDUIT          120.3    0.2578    0.0130
  C1_23            J22              J23              CONDUIT          120.3    0.2578    0.0130
  C1_24            J23              J24              CONDUIT          120.3    0.2495    0.0130
  C1_25            J24              J25              CONDUIT          120.3    0.2578    0.0130
  C1_26            J25              J26              CONDUIT          120.3    0.2495    0.0130
  C1_27            J26              J27              CONDUIT          120.3    0.2578    0.0130
  C1_28            J27              J28              CONDUIT          120.3    0.2578    0.0130
  C1_29            J28              J29              CONDUIT          120.3    0.2495    0.0130
  C1_3             J2               J3               CONDUIT          120.3    0.2578    0.0130
  C1_30            J29              J30              CONDUIT          120.3    0.2578    0.0130
  C1_31            J30              J31              CONDUIT          120.3    0.2495    0.0130
  C1_32            J31              J32              CONDUIT          120.3    0.2578    0.0130
  C1_33            J32              J33              CONDUIT          120.3    0.2495    0.0130
  C1_34            J33              J34              CONDUIT          120.3    0.2578    0.0130
  C1_35            J34              J35              CONDUIT          120.3    0.2578    0.0130
  C1_36            J35              J36              CONDUIT          120.3    0.2495    0.0130
  C1_37            J36              J37              CONDUIT          120.3    0.2578    0.0130
  C1_38            J37              J38              CONDUIT          120.3    0.2495    0.0130
  C1_39            J38              BALLARD_DS       CONDUIT          120.3    0.2578    0.0130
  C1_4             J3               J4               CONDUIT          120.3    0.2495    0.0130
  C1_40            3rdWinflow       J39              CONDUIT          119.7    0.2673    0.0130
  C1_41            J39              J40              CONDUIT          119.7    0.2673    0.0130
  C1_42            J40              J41              CONDUIT          119.7    0.2673    0.0130
  C1_43            J41              J42              CONDUIT          119.7    0.2673    0.0130
  C1_44            J42              J43              CONDUIT          119.7    0.2673    0.0130
  C1_45            J43              J44              CONDUIT          119.7    0.2589    0.0130
  C1_46            J44              J45              CONDUIT          119.7    0.2673    0.0130
  C1_47            J45              J46              CONDUIT          119.7    0.2673    0.0130
  C1_48            J46              J47              CONDUIT          119.7    0.2673    0.0130
  C1_49            J47              J48              CONDUIT          119.7    0.2673    0.0130
  C1_5             J4               J5               CONDUIT          120.3    0.2578    0.0130
  C1_50            J48              J49              CONDUIT          119.7    0.2673    0.0130
  C1_51            J49              J50              CONDUIT          119.7    0.2673    0.0130
  C1_52            J50              J51              CONDUIT          119.7    0.2673    0.0130
  C1_53            J51              J52              CONDUIT          119.7    0.2673    0.0130
  C1_54            J52              J53              CONDUIT          119.7    0.2673    0.0130
  C1_55            J53              J54              CONDUIT          119.7    0.2673    0.0130
  C1_56            J54              J55              CONDUIT          119.7    0.2589    0.0130
  C1_57            J55              J56              CONDUIT          119.7    0.2673    0.0130
  C1_58            J56              J57              CONDUIT          119.7    0.2673    0.0130
  C1_59            J57              J58              CONDUIT          119.7    0.2673    0.0130
  C1_6             J5               J6               CONDUIT          120.3    0.2578    0.0130
  C1_60            J58              J59              CONDUIT          119.7    0.2673    0.0130
  C1_61            J59              J60              CONDUIT          119.7    0.2673    0.0130
  C1_62            J60              J61              CONDUIT          119.7    0.2673    0.0130
  C1_63            J61              J62              CONDUIT          119.7    0.2673    0.0130
  C1_64            J62              J63              CONDUIT          119.7    0.2673    0.0130
  C1_65            J63              J64              CONDUIT          119.7    0.2673    0.0130
  C1_66            J64              J65              CONDUIT          119.7    0.2673    0.0130
  C1_67            J65              J66              CONDUIT          119.7    0.2673    0.0130
  C1_68            J66              J67              CONDUIT          119.7    0.2589    0.0130
  C1_69            J67              J68              CONDUIT          119.7    0.2673    0.0130
  C1_7             J6               J7               CONDUIT          120.3    0.2495    0.0130
  C1_70            J68              J69              CONDUIT          119.7    0.2673    0.0130
  C1_71            J69              J70              CONDUIT          119.7    0.2673    0.0130
  C1_72            J70              J71              CONDUIT          119.7    0.2673    0.0130
  C1_73            J71              11thNWdrop       CONDUIT          119.7    0.2673    0.0130
  C1_74            East_Portal      J72              CONDUIT          119.8    0.2588    0.0130
  C1_75            J72              J73              CONDUIT          119.8    0.2588    0.0130
  C1_76            J73              J74              CONDUIT          119.8    0.2588    0.0130
  C1_77            J74              J75              CONDUIT          119.8    0.2672    0.0130
  C1_78            J75              J76              CONDUIT          119.8    0.2588    0.0130
  C1_79            J76              J77              CONDUIT          119.8    0.2588    0.0130
  C1_8             J7               J8               CONDUIT          120.3    0.2578    0.0130
  C1_80            J77              J78              CONDUIT          119.8    0.2588    0.0130
  C1_81            J78              J79              CONDUIT          119.8    0.2588    0.0130
  C1_82            J79              J80              CONDUIT          119.8    0.2588    0.0130
  C1_83            J80              J81              CONDUIT          119.8    0.2588    0.0130
  C1_84            J81              J82              CONDUIT          119.8    0.2588    0.0130
  C1_85            J82              J83              CONDUIT          119.8    0.2672    0.0130
  C1_86            J83              J84              CONDUIT          119.8    0.2588    0.0130
  C1_87            J84              J85              CONDUIT          119.8    0.2588    0.0130
  C1_88            J85              J86              CONDUIT          119.8    0.2588    0.0130
  C1_89            J86              J87              CONDUIT          119.8    0.2588    0.0130
  C1_9             J8               J9               CONDUIT          120.3    0.2495    0.0130
  C1_90            J87              J88              CONDUIT          119.8    0.2588    0.0130
  C1_91            J88              J89              CONDUIT          119.8    0.2588    0.0130
  C1_92            J89              J90              CONDUIT          119.8    0.2588    0.0130
  C1_93            J90              J91              CONDUIT          119.8    0.2672    0.0130
  C1_94            J91              J92              CONDUIT          119.8    0.2588    0.0130
  C1_95            J92              J93              CONDUIT          119.8    0.2588    0.0130
  C1_96            J93              J94              CONDUIT          119.8    0.2588    0.0130
  C1_97            J94              J95              CONDUIT          119.8    0.2588    0.0130
  C1_98            J95              J96              CONDUIT          119.8    0.2588    0.0130
  C1_99            J96              J97              CONDUIT          119.8    0.2588    0.0130
  OF1              SU1              East_Portal      ORIFICE     
  
  
  *********************
  Cross Section Summary
  *********************
                                        Full     Full     Hyd.     Max.   No. of     Full
  Conduit          Shape               Depth     Area     Rad.    Width  Barrels     Flow
  ---------------------------------------------------------------------------------------
  C1               CIRCULAR             1.00     0.79     0.25     1.00        1     0.07
  C1_1             CIRCULAR            18.00   254.47     4.50    18.00        1  4025.43
  C1_10            CIRCULAR            18.00   254.47     4.50    18.00        1  4025.43
  C1_100           CIRCULAR            18.00   254.47     4.50    18.00        1  4033.53
  C1_101           CIRCULAR            18.00   254.47     4.50    18.00        1  4098.07
  C1_102           CIRCULAR            18.00   254.47     4.50    18.00        1  4033.53
  C1_103           CIRCULAR            18.00   254.47     4.50    18.00        1  4033.53
  C1_104           CIRCULAR            18.00   254.47     4.50    18.00        1  4033.53
  C1_105           CIRCULAR            18.00   254.47     4.50    18.00        1  4033.53
  C1_106           CIRCULAR            18.00   254.47     4.50    18.00        1  4033.53
  C1_107           CIRCULAR            18.00   254.47     4.50    18.00        1  4033.53
  C1_108           CIRCULAR            18.00   254.47     4.50    18.00        1  4033.53
  C1_109           CIRCULAR            18.00   254.47     4.50    18.00        1  4098.07
  C1_11            CIRCULAR            18.00   254.47     4.50    18.00        1  3959.97
  C1_110           CIRCULAR            18.00   254.47     4.50    18.00        1  4033.53
  C1_111           CIRCULAR            18.00   254.47     4.50    18.00        1  4033.53
  C1_112           CIRCULAR            18.00   254.47     4.50    18.00        1  4033.53
  C1_12            CIRCULAR            18.00   254.47     4.50    18.00        1  4025.43
  C1_13            CIRCULAR            18.00   254.47     4.50    18.00        1  4025.43
  C1_14            CIRCULAR            18.00   254.47     4.50    18.00        1  3959.97
  C1_15            CIRCULAR            18.00   254.47     4.50    18.00        1  4025.43
  C1_16            CIRCULAR            18.00   254.47     4.50    18.00        1  3959.97
  C1_17            CIRCULAR            18.00   254.47     4.50    18.00        1  4025.43
  C1_18            CIRCULAR            18.00   254.47     4.50    18.00        1  4025.43
  C1_19            CIRCULAR            18.00   254.47     4.50    18.00        1  3959.97
  C1_2             CIRCULAR            18.00   254.47     4.50    18.00        1  3959.97
  C1_20            CIRCULAR            18.00   254.47     4.50    18.00        1  4025.43
  C1_21            CIRCULAR            18.00   254.47     4.50    18.00        1  3959.97
  C1_22            CIRCULAR            18.00   254.47     4.50    18.00        1  4025.43
  C1_23            CIRCULAR            18.00   254.47     4.50    18.00        1  4025.43
  C1_24            CIRCULAR            18.00   254.47     4.50    18.00        1  3959.97
  C1_25            CIRCULAR            18.00   254.47     4.50    18.00        1  4025.43
  C1_26            CIRCULAR            18.00   254.47     4.50    18.00        1  3959.97
  C1_27            CIRCULAR            18.00   254.47     4.50    18.00        1  4025.43
  C1_28            CIRCULAR            18.00   254.47     4.50    18.00        1  4025.43
  C1_29            CIRCULAR            18.00   254.47     4.50    18.00        1  3959.97
  C1_3             CIRCULAR            18.00   254.47     4.50    18.00        1  4025.43
  C1_30            CIRCULAR            18.00   254.47     4.50    18.00        1  4025.43
  C1_31            CIRCULAR            18.00   254.47     4.50    18.00        1  3959.97
  C1_32            CIRCULAR            18.00   254.47     4.50    18.00        1  4025.43
  C1_33            CIRCULAR            18.00   254.47     4.50    18.00        1  3959.97
  C1_34            CIRCULAR            18.00   254.47     4.50    18.00        1  4025.43
  C1_35            CIRCULAR            18.00   254.47     4.50    18.00        1  4025.43
  C1_36            CIRCULAR            18.00   254.47     4.50    18.00        1  3959.97
  C1_37            CIRCULAR            18.00   254.47     4.50    18.00        1  4025.43
  C1_38            CIRCULAR            18.00   254.47     4.50    18.00        1  3959.97
  C1_39            CIRCULAR            18.00   254.47     4.50    18.00        1  4025.43
  C1_4             CIRCULAR            18.00   254.47     4.50    18.00        1  3959.97
  C1_40            CIRCULAR            18.00   254.47     4.50    18.00        1  4099.07
  C1_41            CIRCULAR            18.00   254.47     4.50    18.00        1  4099.07
  C1_42            CIRCULAR            18.00   254.47     4.50    18.00        1  4099.07
  C1_43            CIRCULAR            18.00   254.47     4.50    18.00        1  4099.07
  C1_44            CIRCULAR            18.00   254.47     4.50    18.00        1  4099.07
  C1_45            CIRCULAR            18.00   254.47     4.50    18.00        1  4034.51
  C1_46            CIRCULAR            18.00   254.47     4.50    18.00        1  4099.07
  C1_47            CIRCULAR            18.00   254.47     4.50    18.00        1  4099.07
  C1_48            CIRCULAR            18.00   254.47     4.50    18.00        1  4099.07
  C1_49            CIRCULAR            18.00   254.47     4.50    18.00        1  4099.07
  C1_5             CIRCULAR            18.00   254.47     4.50    18.00        1  4025.43
  C1_50            CIRCULAR            18.00   254.47     4.50    18.00        1  4099.07
  C1_51            CIRCULAR            18.00   254.47     4.50    18.00        1  4099.07
  C1_52            CIRCULAR            18.00   254.47     4.50    18.00        1  4099.07
  C1_53            CIRCULAR            18.00   254.47     4.50    18.00        1  4099.07
  C1_54            CIRCULAR            18.00   254.47     4.50    18.00        1  4099.07
  C1_55            CIRCULAR            18.00   254.47     4.50    18.00        1  4099.07
  C1_56            CIRCULAR            18.00   254.47     4.50    18.00        1  4034.51
  C1_57            CIRCULAR            18.00   254.47     4.50    18.00        1  4099.07
  C1_58            CIRCULAR            18.00   254.47     4.50    18.00        1  4099.07
  C1_59            CIRCULAR            18.00   254.47     4.50    18.00        1  4099.07
  C1_6             CIRCULAR            18.00   254.47     4.50    18.00        1  4025.43
  C1_60            CIRCULAR            18.00   254.47     4.50    18.00        1  4099.07
  C1_61            CIRCULAR            18.00   254.47     4.50    18.00        1  4099.07
  C1_62            CIRCULAR            18.00   254.47     4.50    18.00        1  4099.07
  C1_63            CIRCULAR            18.00   254.47     4.50    18.00        1  4099.07
  C1_64            CIRCULAR            18.00   254.47     4.50    18.00        1  4099.07
  C1_65            CIRCULAR            18.00   254.47     4.50    18.00        1  4099.07
  C1_66            CIRCULAR            18.00   254.47     4.50    18.00        1  4099.07
  C1_67            CIRCULAR            18.00   254.47     4.50    18.00        1  4099.07
  C1_68            CIRCULAR            18.00   254.47     4.50    18.00        1  4034.51
  C1_69            CIRCULAR            18.00   254.47     4.50    18.00        1  4099.07
  C1_7             CIRCULAR            18.00   254.47     4.50    18.00        1  3959.97
  C1_70            CIRCULAR            18.00   254.47     4.50    18.00        1  4099.07
  C1_71            CIRCULAR            18.00   254.47     4.50    18.00        1  4099.07
  C1_72            CIRCULAR            18.00   254.47     4.50    18.00        1  4099.07
  C1_73            CIRCULAR            18.00   254.47     4.50    18.00        1  4099.07
  C1_74            CIRCULAR            18.00   254.47     4.50    18.00        1  4033.53
  C1_75            CIRCULAR            18.00   254.47     4.50    18.00        1  4033.53
  C1_76            CIRCULAR            18.00   254.47     4.50    18.00        1  4033.53
  C1_77            CIRCULAR            18.00   254.47     4.50    18.00        1  4098.07
  C1_78            CIRCULAR            18.00   254.47     4.50    18.00        1  4033.53
  C1_79            CIRCULAR            18.00   254.47     4.50    18.00        1  4033.53
  C1_8             CIRCULAR            18.00   254.47     4.50    18.00        1  4025.43
  C1_80            CIRCULAR            18.00   254.47     4.50    18.00        1  4033.53
  C1_81            CIRCULAR            18.00   254.47     4.50    18.00        1  4033.53
  C1_82            CIRCULAR            18.00   254.47     4.50    18.00        1  4033.53
  C1_83            CIRCULAR            18.00   254.47     4.50    18.00        1  4033.53
  C1_84            CIRCULAR            18.00   254.47     4.50    18.00        1  4033.53
  C1_85            CIRCULAR            18.00   254.47     4.50    18.00        1  4098.07
  C1_86            CIRCULAR            18.00   254.47     4.50    18.00        1  4033.53
  C1_87            CIRCULAR            18.00   254.47     4.50    18.00        1  4033.53
  C1_88            CIRCULAR            18.00   254.47     4.50    18.00        1  4033.53
  C1_89            CIRCULAR            18.00   254.47     4.50    18.00        1  4033.53
  C1_9             CIRCULAR            18.00   254.47     4.50    18.00        1  3959.97
  C1_90            CIRCULAR            18.00   254.47     4.50    18.00        1  4033.53
  C1_91            CIRCULAR            18.00   254.47     4.50    18.00        1  4033.53
  C1_92            CIRCULAR            18.00   254.47     4.50    18.00        1  4033.53
  C1_93            CIRCULAR            18.00   254.47     4.50    18.00        1  4098.07
  C1_94            CIRCULAR            18.00   254.47     4.50    18.00        1  4033.53
  C1_95            CIRCULAR            18.00   254.47     4.50    18.00        1  4033.53
  C1_96            CIRCULAR            18.00   254.47     4.50    18.00        1  4033.53
  C1_97            CIRCULAR            18.00   254.47     4.50    18.00        1  4033.53
  C1_98            CIRCULAR            18.00   254.47     4.50    18.00        1  4033.53
  C1_99            CIRCULAR            18.00   254.47     4.50    18.00        1  4033.53
  
  
  
  *********************************************************
  NOTE: The summary statistics displayed in this report are
  based on results found at every computational time step,  
  not just on results from each reporting time step.
  *********************************************************
  
  ****************
  Analysis Options
  ****************
  Flow Units ............... CFS
  Process Models:
    Rainfall/Runoff ........ NO
    RDII ................... NO
    Snowmelt ............... NO
    Groundwater ............ NO
    Flow Routing ........... YES
    Ponding Allowed ........ NO
    Water Quality .......... NO
  Flow Routing Method ...... DYNWAVE
  Surcharge Method ......... EXTRAN
  Starting Date ............ 04/28/2016 00:00:00
  Ending Date .............. 04/29/2016 04:00:00
  Antecedent Dry Days ...... 0.0
  Report Time Step ......... 00:00:10
  Routing Time Step ........ 10.00 sec
  Variable Time Step ....... YES
  Maximum Trials ........... 8
  Number of Threads ........ 2
  Head Tolerance ........... 0.005000 ft
  
  
  *********************
  Control Actions Taken
  *********************
   04/28/2016: 00:00:00 Link OF1 setting changed to   0.00 by Control FLUSHGATECONTROL
   04/28/2016: 00:01:04 Link OF1 setting changed to   0.01 by Control FLUSHGATECONTROL_1
   04/28/2016: 00:11:04 Link OF1 setting changed to   1.00 by Control FLUSHGATECONTROL_4
   04/28/2016: 00:16:04 Link OF1 setting changed to   0.02 by Control FLUSHGATECONTROL_5
   04/28/2016: 00:21:04 Link OF1 setting changed to   0.01 by Control FLUSHGATECONTROL_6
   04/28/2016: 00:31:01 Link OF1 setting changed to   0.00 by Control FLUSHGATECONTROL_7
   04/28/2016: 00:41:01 Link OF1 setting changed to   0.01 by Control FLUSHGATECONTROL_8
   04/28/2016: 00:51:06 Link OF1 setting changed to   1.00 by Control FLUSHGATECONTROL_4
   04/28/2016: 00:56:02 Link OF1 setting changed to   0.02 by Control FLUSHGATECONTROL_5
   04/28/2016: 01:01:06 Link OF1 setting changed to   0.01 by Control FLUSHGATECONTROL_6
   04/28/2016: 01:11:03 Link OF1 setting changed to   0.00 by Control FLUSHGATECONTROL_7
   04/28/2016: 01:21:07 Link OF1 setting changed to   0.01 by Control FLUSHGATECONTROL_8
   04/28/2016: 01:31:07 Link OF1 setting changed to   1.00 by Control FLUSHGATECONTROL_4
   04/28/2016: 01:36:04 Link OF1 setting changed to   0.02 by Control FLUSHGATECONTROL_5
   04/28/2016: 01:41:12 Link OF1 setting changed to   0.01 by Control FLUSHGATECONTROL_6
   04/28/2016: 01:51:10 Link OF1 setting changed to   0.00 by Control FLUSHGATECONTROL_7
   04/28/2016: 02:01:08 Link OF1 setting changed to   0.01 by Control FLUSHGATECONTROL_8
   04/28/2016: 02:11:10 Link OF1 setting changed to   1.00 by Control FLUSHGATECONTROL_4
   04/28/2016: 02:16:08 Link OF1 setting changed to   0.02 by Control FLUSHGATECONTROL_5
   04/28/2016: 02:21:13 Link OF1 setting changed to   0.01 by Control FLUSHGATECONTROL_6
   04/28/2016: 02:31:05 Link OF1 setting changed to   0.00 by Control FLUSHGATECONTROL_7
   04/28/2016: 02:41:07 Link OF1 setting changed to   0.01 by Control FLUSHGATECONTROL_8
   04/28/2016: 02:51:07 Link OF1 setting changed to   1.00 by Control FLUSHGATECONTROL_4
   04/28/2016: 02:56:07 Link OF1 setting changed to   0.02 by Control FLUSHGATECONTROL_5
   04/28/2016: 03:01:07 Link OF1 setting changed to   0.01 by Control FLUSHGATECONTROL_6
   04/28/2016: 03:11:07 Link OF1 setting changed to   0.00 by Control FLUSHGATECONTROL_7
   04/28/2016: 03:21:07 Link OF1 setting changed to   0.01 by Control FLUSHGATECONTROL_8
   04/28/2016: 03:31:07 Link OF1 setting changed to   1.00 by Control FLUSHGATECONTROL_4
   04/28/2016: 03:36:07 Link OF1 setting changed to   0.02 by Control FLUSHGATECONTROL_5
   04/28/2016: 03:41:07 Link OF1 setting changed to   0.01 by Control FLUSHGATECONTROL_6
   04/28/2016: 03:51:07 Link OF1 setting changed to   0.00 by Control FLUSHGATECONTROL_7
   04/28/2016: 04:01:07 Link OF1 setting changed to   0.01 by Control FLUSHGATECONTROL_8
   04/28/2016: 04:11:07 Link OF1 setting changed to   1.00 by Control FLUSHGATECONTROL_4
   04/28/2016: 04:16:07 Link OF1 setting changed to   0.02 by Control FLUSHGATECONTROL_5
   04/28/2016: 04:21:07 Link OF1 setting changed to   0.01 by Control FLUSHGATECONTROL_6
   04/28/2016: 04:31:07 Link OF1 setting changed to   0.00 by Control FLUSHGATECONTROL_7
   04/28/2016: 04:41:07 Link OF1 setting changed to   0.01 by Control FLUSHGATECONTROL_8
   04/28/2016: 04:51:07 Link OF1 setting changed to   1.00 by Control FLUSHGATECONTROL_4
   04/28/2016: 04:56:07 Link OF1 setting changed to   0.02 by Control FLUSHGATECONTROL_5
   04/28/2016: 05:01:07 Link OF1 setting changed to   0.01 by Control FLUSHGATECONTROL_6
   04/28/2016: 05:11:07 Link OF1 setting changed to   0.00 by Control FLUSHGATECONTROL_7
   04/28/2016: 05:21:07 Link OF1 setting changed to   0.01 by Control FLUSHGATECONTROL_8
   04/28/2016: 05:31:07 Link OF1 setting changed to   1.00 by Control FLUSHGATECONTROL_4
   04/28/2016: 05:36:07 Link OF1 setting changed to   0.02 by Control FLUSHGATECONTROL_5
   04/28/2016: 05:41:07 Link OF1 setting changed to   0.01 by Control FLUSHGATECONTROL_6
   04/28/2016: 05:51:07 Link OF1 setting changed to   0.00 by Control FLUSHGATECONTROL_7
   04/28/2016: 06:01:07 Link OF1 setting changed to   0.01 by Control FLUSHGATECONTROL_8
   04/28/2016: 06:11:07 Link OF1 setting changed to   1.00 by Control FLUSHGATECONTROL_4
   04/28/2016: 06:16:07 Link OF1 setting changed to   0.02 by Control FLUSHGATECONTROL_5
   04/28/2016: 06:21:07 Link OF1 setting changed to   0.01 by Control FLUSHGATECONTROL_6
   04/28/2016: 06:31:07 Link OF1 setting changed to   0.00 by Control FLUSHGATECONTROL_7
   04/28/2016: 06:41:07 Link OF1 setting changed to   0.01 by Control FLUSHGATECONTROL_8
   04/28/2016: 06:51:07 Link OF1 setting changed to   1.00 by Control FLUSHGATECONTROL_4
   04/28/2016: 06:56:07 Link OF1 setting changed to   0.02 by Control FLUSHGATECONTROL_5
   04/28/2016: 07:01:07 Link OF1 setting changed to   0.01 by Control FLUSHGATECONTROL_6
   04/28/2016: 07:11:07 Link OF1 setting changed to   0.00 by Control FLUSHGATECONTROL_7
   04/28/2016: 07:21:07 Link OF1 setting changed to   0.01 by Control FLUSHGATECONTROL_8
   04/28/2016: 07:31:07 Link OF1 setting changed to   1.00 by Control FLUSHGATECONTROL_4
   04/28/2016: 07:36:07 Link OF1 setting changed to   0.02 by Control FLUSHGATECONTROL_5
   04/28/2016: 07:41:07 Link OF1 setting changed to   0.01 by Control FLUSHGATECONTROL_6
   04/28/2016: 07:51:07 Link OF1 setting changed to   0.00 by Control FLUSHGATECONTROL_7
   04/28/2016: 08:01:07 Link OF1 setting changed to   0.01 by Control FLUSHGATECONTROL_8
   04/28/2016: 08:11:07 Link OF1 setting changed to   1.00 by Control FLUSHGATECONTROL_4
   04/28/2016: 08:16:07 Link OF1 setting changed to   0.02 by Control FLUSHGATECONTROL_5
   04/28/2016: 08:21:07 Link OF1 setting changed to   0.01 by Control FLUSHGATECONTROL_6
   04/28/2016: 08:31:07 Link OF1 setting changed to   0.00 by Control FLUSHGATECONTROL_7
   04/28/2016: 08:41:07 Link OF1 setting changed to   0.01 by Control FLUSHGATECONTROL_8
   04/28/2016: 08:51:07 Link OF1 setting changed to   1.00 by Control FLUSHGATECONTROL_4
   04/28/2016: 08:56:07 Link OF1 setting changed to   0.02 by Control FLUSHGATECONTROL_5
   04/28/2016: 09:01:07 Link OF1 setting changed to   0.01 by Control FLUSHGATECONTROL_6
   04/28/2016: 09:11:07 Link OF1 setting changed to   0.00 by Control FLUSHGATECONTROL_7
   04/28/2016: 09:21:07 Link OF1 setting changed to   0.01 by Control FLUSHGATECONTROL_8
   04/28/2016: 09:31:07 Link OF1 setting changed to   1.00 by Control FLUSHGATECONTROL_4
   04/28/2016: 09:36:07 Link OF1 setting changed to   0.02 by Control FLUSHGATECONTROL_5
   04/28/2016: 09:41:07 Link OF1 setting changed to   0.01 by Control FLUSHGATECONTROL_6
   04/28/2016: 09:51:07 Link OF1 setting changed to   0.00 by Control FLUSHGATECONTROL_7
   04/28/2016: 10:01:07 Link OF1 setting changed to   0.01 by Control FLUSHGATECONTROL_8
   04/28/2016: 10:11:07 Link OF1 setting changed to   1.00 by Control FLUSHGATECONTROL_4
   04/28/2016: 10:16:07 Link OF1 setting changed to   0.02 by Control FLUSHGATECONTROL_5
   04/28/2016: 10:21:07 Link OF1 setting changed to   0.01 by Control FLUSHGATECONTROL_6
   04/28/2016: 10:31:07 Link OF1 setting changed to   0.00 by Control FLUSHGATECONTROL_7
   04/28/2016: 10:41:07 Link OF1 setting changed to   0.01 by Control FLUSHGATECONTROL_8
   04/28/2016: 10:51:07 Link OF1 setting changed to   1.00 by Control FLUSHGATECONTROL_4
   04/28/2016: 10:56:07 Link OF1 setting changed to   0.02 by Control FLUSHGATECONTROL_5
   04/28/2016: 11:01:07 Link OF1 setting changed to   0.01 by Control FLUSHGATECONTROL_6
   04/28/2016: 11:11:07 Link OF1 setting changed to   0.00 by Control FLUSHGATECONTROL_7
   04/28/2016: 11:21:07 Link OF1 setting changed to   0.01 by Control FLUSHGATECONTROL_8
   04/28/2016: 11:31:07 Link OF1 setting changed to   1.00 by Control FLUSHGATECONTROL_4
   04/28/2016: 11:36:07 Link OF1 setting changed to   0.02 by Control FLUSHGATECONTROL_5
   04/28/2016: 11:41:07 Link OF1 setting changed to   0.01 by Control FLUSHGATECONTROL_6
   04/28/2016: 11:51:07 Link OF1 setting changed to   0.00 by Control FLUSHGATECONTROL_7
   04/28/2016: 12:01:07 Link OF1 setting changed to   0.01 by Control FLUSHGATECONTROL_8
   04/28/2016: 12:11:07 Link OF1 setting changed to   1.00 by Control FLUSHGATECONTROL_4
   04/28/2016: 12:16:07 Link OF1 setting changed to   0.02 by Control FLUSHGATECONTROL_5
   04/28/2016: 12:21:07 Link OF1 setting changed to   0.01 by Control FLUSHGATECONTROL_6
   04/28/2016: 12:31:07 Link OF1 setting changed to   0.00 by Control FLUSHGATECONTROL_7
   04/28/2016: 12:41:07 Link OF1 setting changed to   0.01 by Control FLUSHGATECONTROL_8
   04/28/2016: 12:51:07 Link OF1 setting changed to   1.00 by Control FLUSHGATECONTROL_4
   04/28/2016: 12:56:07 Link OF1 setting changed to   0.02 by Control FLUSHGATECONTROL_5
   04/28/2016: 13:01:07 Link OF1 setting changed to   0.01 by Control FLUSHGATECONTROL_6
   04/28/2016: 13:11:07 Link OF1 setting changed to   0.00 by Control FLUSHGATECONTROL_7
   04/28/2016: 13:21:07 Link OF1 setting changed to   0.01 by Control FLUSHGATECONTROL_8
   04/28/2016: 13:31:07 Link OF1 setting changed to   1.00 by Control FLUSHGATECONTROL_4
   04/28/2016: 13:36:07 Link OF1 setting changed to   0.02 by Control FLUSHGATECONTROL_5
   04/28/2016: 13:41:07 Link OF1 setting changed to   0.01 by Control FLUSHGATECONTROL_6
   04/28/2016: 13:51:07 Link OF1 setting changed to   0.00 by Control FLUSHGATECONTROL_7
   04/28/2016: 14:01:07 Link OF1 setting changed to   0.01 by Control FLUSHGATECONTROL_8
   04/28/2016: 14:11:07 Link OF1 setting changed to   1.00 by Control FLUSHGATECONTROL_4
   04/28/2016: 14:16:07 Link OF1 setting changed to   0.02 by Control FLUSHGATECONTROL_5
   04/28/2016: 14:21:07 Link OF1 setting changed to   0.01 by Control FLUSHGATECONTROL_6
   04/28/2016: 14:31:07 Link OF1 setting changed to   0.00 by Control FLUSHGATECONTROL_7
   04/28/2016: 14:41:07 Link OF1 setting changed to   0.01 by Control FLUSHGATECONTROL_8
   04/28/2016: 14:51:07 Link OF1 setting changed to   1.00 by Control FLUSHGATECONTROL_4
   04/28/2016: 14:56:07 Link OF1 setting changed to   0.02 by Control FLUSHGATECONTROL_5
   04/28/2016: 15:01:07 Link OF1 setting changed to   0.01 by Control FLUSHGATECONTROL_6
   04/28/2016: 15:11:07 Link OF1 setting changed to   0.00 by Control FLUSHGATECONTROL_7
   04/28/2016: 15:21:07 Link OF1 setting changed to   0.01 by Control FLUSHGATECONTROL_8
   04/28/2016: 15:31:07 Link OF1 setting changed to   1.00 by Control FLUSHGATECONTROL_4
   04/28/2016: 15:36:07 Link OF1 setting changed to   0.02 by Control FLUSHGATECONTROL_5
   04/28/2016: 15:41:07 Link OF1 setting changed to   0.01 by Control FLUSHGATECONTROL_6
   04/28/2016: 15:51:07 Link OF1 setting changed to   0.00 by Control FLUSHGATECONTROL_7
   04/28/2016: 16:01:07 Link OF1 setting changed to   0.01 by Control FLUSHGATECONTROL_8
   04/28/2016: 16:11:07 Link OF1 setting changed to   1.00 by Control FLUSHGATECONTROL_4
   04/28/2016: 16:16:07 Link OF1 setting changed to   0.02 by Control FLUSHGATECONTROL_5
   04/28/2016: 16:21:07 Link OF1 setting changed to   0.01 by Control FLUSHGATECONTROL_6
   04/28/2016: 16:31:07 Link OF1 setting changed to   0.00 by Control FLUSHGATECONTROL_7
   04/28/2016: 16:41:07 Link OF1 setting changed to   0.01 by Control FLUSHGATECONTROL_8
   04/28/2016: 16:51:07 Link OF1 setting changed to   1.00 by Control FLUSHGATECONTROL_4
   04/28/2016: 16:56:07 Link OF1 setting changed to   0.02 by Control FLUSHGATECONTROL_5
   04/28/2016: 17:01:07 Link OF1 setting changed to   0.01 by Control FLUSHGATECONTROL_6
   04/28/2016: 17:11:07 Link OF1 setting changed to   0.00 by Control FLUSHGATECONTROL_7
   04/28/2016: 17:21:07 Link OF1 setting changed to   0.01 by Control FLUSHGATECONTROL_8
   04/28/2016: 17:31:07 Link OF1 setting changed to   1.00 by Control FLUSHGATECONTROL_4
   04/28/2016: 17:36:07 Link OF1 setting changed to   0.02 by Control FLUSHGATECONTROL_5
   04/28/2016: 17:41:07 Link OF1 setting changed to   0.01 by Control FLUSHGATECONTROL_6
   04/28/2016: 17:51:07 Link OF1 setting changed to   0.00 by Control FLUSHGATECONTROL_7
   04/28/2016: 18:01:07 Link OF1 setting changed to   0.01 by Control FLUSHGATECONTROL_8
   04/28/2016: 18:11:07 Link OF1 setting changed to   1.00 by Control FLUSHGATECONTROL_4
   04/28/2016: 18:16:07 Link OF1 setting changed to   0.02 by Control FLUSHGATECONTROL_5
   04/28/2016: 18:21:07 Link OF1 setting changed to   0.01 by Control FLUSHGATECONTROL_6
   04/28/2016: 18:31:07 Link OF1 setting changed to   0.00 by Control FLUSHGATECONTROL_7
   04/28/2016: 18:41:07 Link OF1 setting changed to   0.01 by Control FLUSHGATECONTROL_8
   04/28/2016: 18:51:07 Link OF1 setting changed to   1.00 by Control FLUSHGATECONTROL_4
   04/28/2016: 18:56:07 Link OF1 setting changed to   0.02 by Control FLUSHGATECONTROL_5
   04/28/2016: 19:01:07 Link OF1 setting changed to   0.01 by Control FLUSHGATECONTROL_6
   04/28/2016: 19:11:07 Link OF1 setting changed to   0.00 by Control FLUSHGATECONTROL_7
   04/28/2016: 19:21:07 Link OF1 setting changed to   0.01 by Control FLUSHGATECONTROL_8
   04/28/2016: 19:31:07 Link OF1 setting changed to   1.00 by Control FLUSHGATECONTROL_4
   04/28/2016: 19:36:07 Link OF1 setting changed to   0.02 by Control FLUSHGATECONTROL_5
   04/28/2016: 19:41:07 Link OF1 setting changed to   0.01 by Control FLUSHGATECONTROL_6
   04/28/2016: 19:51:07 Link OF1 setting changed to   0.00 by Control FLUSHGATECONTROL_7
   04/28/2016: 20:01:07 Link OF1 setting changed to   0.01 by Control FLUSHGATECONTROL_8
   04/28/2016: 20:11:07 Link OF1 setting changed to   1.00 by Control FLUSHGATECONTROL_4
   04/28/2016: 20:16:07 Link OF1 setting changed to   0.02 by Control FLUSHGATECONTROL_5
   04/28/2016: 20:21:07 Link OF1 setting changed to   0.01 by Control FLUSHGATECONTROL_6
   04/28/2016: 20:31:07 Link OF1 setting changed to   0.00 by Control FLUSHGATECONTROL_7
   04/28/2016: 20:41:07 Link OF1 setting changed to   0.01 by Control FLUSHGATECONTROL_8
   04/28/2016: 20:51:07 Link OF1 setting changed to   1.00 by Control FLUSHGATECONTROL_4
   04/28/2016: 20:56:07 Link OF1 setting changed to   0.02 by Control FLUSHGATECONTROL_5
   04/28/2016: 21:01:07 Link OF1 setting changed to   0.01 by Control FLUSHGATECONTROL_6
   04/28/2016: 21:11:07 Link OF1 setting changed to   0.00 by Control FLUSHGATECONTROL_7
   04/28/2016: 21:21:07 Link OF1 setting changed to   0.01 by Control FLUSHGATECONTROL_8
   04/28/2016: 21:31:07 Link OF1 setting changed to   1.00 by Control FLUSHGATECONTROL_4
   04/28/2016: 21:36:07 Link OF1 setting changed to   0.02 by Control FLUSHGATECONTROL_5
   04/28/2016: 21:41:07 Link OF1 setting changed to   0.01 by Control FLUSHGATECONTROL_6
   04/28/2016: 21:51:07 Link OF1 setting changed to   0.00 by Control FLUSHGATECONTROL_7
   04/28/2016: 22:01:07 Link OF1 setting changed to   0.01 by Control FLUSHGATECONTROL_8
   04/28/2016: 22:11:07 Link OF1 setting changed to   1.00 by Control FLUSHGATECONTROL_4
   04/28/2016: 22:16:07 Link OF1 setting changed to   0.02 by Control FLUSHGATECONTROL_5
   04/28/2016: 22:21:07 Link OF1 setting changed to   0.01 by Control FLUSHGATECONTROL_6
   04/28/2016: 22:31:07 Link OF1 setting changed to   0.00 by Control FLUSHGATECONTROL_7
   04/28/2016: 22:41:07 Link OF1 setting changed to   0.01 by Control FLUSHGATECONTROL_8
   04/28/2016: 22:51:07 Link OF1 setting changed to   1.00 by Control FLUSHGATECONTROL_4
   04/28/2016: 22:56:07 Link OF1 setting changed to   0.02 by Control FLUSHGATECONTROL_5
   04/28/2016: 23:01:07 Link OF1 setting changed to   0.01 by Control FLUSHGATECONTROL_6
   04/28/2016: 23:11:07 Link OF1 setting changed to   0.00 by Control FLUSHGATECONTROL_7
   04/28/2016: 23:21:07 Link OF1 setting changed to   0.01 by Control FLUSHGATECONTROL_8
   04/28/2016: 23:31:07 Link OF1 setting changed to   1.00 by Control FLUSHGATECONTROL_4
   04/28/2016: 23:36:07 Link OF1 setting changed to   0.02 by Control FLUSHGATECONTROL_5
   04/28/2016: 23:41:07 Link OF1 setting changed to   0.01 by Control FLUSHGATECONTROL_6
   04/28/2016: 23:51:07 Link OF1 setting changed to   0.00 by Control FLUSHGATECONTROL_7
   04/29/2016: 00:01:07 Link OF1 setting changed to   0.01 by Control FLUSHGATECONTROL_8
   04/29/2016: 00:11:07 Link OF1 setting changed to   1.00 by Control FLUSHGATECONTROL_4
   04/29/2016: 00:16:07 Link OF1 setting changed to   0.02 by Control FLUSHGATECONTROL_5
   04/29/2016: 00:21:07 Link OF1 setting changed to   0.01 by Control FLUSHGATECONTROL_6
   04/29/2016: 00:31:07 Link OF1 setting changed to   0.00 by Control FLUSHGATECONTROL_7
   04/29/2016: 00:41:07 Link OF1 setting changed to   0.01 by Control FLUSHGATECONTROL_8
   04/29/2016: 00:51:07 Link OF1 setting changed to   1.00 by Control FLUSHGATECONTROL_4
   04/29/2016: 00:56:07 Link OF1 setting changed to   0.02 by Control FLUSHGATECONTROL_5
   04/29/2016: 01:01:07 Link OF1 setting changed to   0.01 by Control FLUSHGATECONTROL_6
   04/29/2016: 01:11:07 Link OF1 setting changed to   0.00 by Control FLUSHGATECONTROL_7
   04/29/2016: 01:21:07 Link OF1 setting changed to   0.01 by Control FLUSHGATECONTROL_8
   04/29/2016: 01:31:07 Link OF1 setting changed to   1.00 by Control FLUSHGATECONTROL_4
   04/29/2016: 01:36:07 Link OF1 setting changed to   0.02 by Control FLUSHGATECONTROL_5
   04/29/2016: 01:41:07 Link OF1 setting changed to   0.01 by Control FLUSHGATECONTROL_6
   04/29/2016: 01:51:07 Link OF1 setting changed to   0.00 by Control FLUSHGATECONTROL_7
   04/29/2016: 02:01:07 Link OF1 setting changed to   0.01 by Control FLUSHGATECONTROL_8
   04/29/2016: 02:11:07 Link OF1 setting changed to   1.00 by Control FLUSHGATECONTROL_4
   04/29/2016: 02:16:07 Link OF1 setting changed to   0.02 by Control FLUSHGATECONTROL_5
   04/29/2016: 02:21:07 Link OF1 setting changed to   0.01 by Control FLUSHGATECONTROL_6
   04/29/2016: 02:31:07 Link OF1 setting changed to   0.00 by Control FLUSHGATECONTROL_7
   04/29/2016: 02:41:07 Link OF1 setting changed to   0.01 by Control FLUSHGATECONTROL_8
   04/29/2016: 02:51:07 Link OF1 setting changed to   1.00 by Control FLUSHGATECONTROL_4
   04/29/2016: 02:56:07 Link OF1 setting changed to   0.02 by Control FLUSHGATECONTROL_5
   04/29/2016: 03:01:07 Link OF1 setting changed to   0.01 by Control FLUSHGATECONTROL_6
   04/29/2016: 03:11:07 Link OF1 setting changed to   0.00 by Control FLUSHGATECONTROL_7
   04/29/2016: 03:21:07 Link OF1 setting changed to   0.01 by Control FLUSHGATECONTROL_8
   04/29/2016: 03:31:07 Link OF1 setting changed to   1.00 by Control FLUSHGATECONTROL_4
   04/29/2016: 03:36:07 Link OF1 setting changed to   0.02 by Control FLUSHGATECONTROL_5
   04/29/2016: 03:41:07 Link OF1 setting changed to   0.01 by Control FLUSHGATECONTROL_6
   04/29/2016: 03:51:07 Link OF1 setting changed to   0.00 by Control FLUSHGATECONTROL_7

  
  **************************        Volume        Volume
  Flow Routing Continuity        acre-feet      10^6 gal
  **************************     ---------     ---------
  Dry Weather Inflow .......         0.000         0.000
  Wet Weather Inflow .......         0.000         0.000
  Groundwater Inflow .......         0.000         0.000
  RDII Inflow ..............         0.000         0.000
  External Inflow ..........         0.000         0.000
  External Outflow .........         0.000         0.000
  Flooding Loss ............         0.000         0.000
  Evaporation Loss .........         0.000         0.000
  Exfiltration Loss ........         0.000         0.000
  Initial Stored Volume ....         0.246         0.080
  Final Stored Volume ......         0.196         0.064
  Continuity Error (%) .....        20.343
  
  
  *************************
  Highest Continuity Errors
  *************************
  Node East_Portal (4.65%)
  Node J72 (3.33%)
  Node J73 (1.44%)
  Node J74 (1.06%)
  
  
  ***************************
  Time-Step Critical Elements
  ***************************
  None
  
  
  ********************************
  Highest Flow Instability Indexes
  ********************************
  Link C1_36 (1)
  Link C1_37 (1)
  Link C1_38 (1)
  Link C1_35 (1)
  Link C1_30 (1)
  
  
  *************************
  Routing Time Step Summary
  *************************
  Minimum Time Step           :     1.85 sec
  Average Time Step           :     9.97 sec
  Maximum Time Step           :    10.00 sec
  Percent in Steady State     :     0.00
  Average Iterations per Step :     2.03
  Percent Not Converging      :     0.03
  
  
  ******************
  Node Depth Summary
  ******************
  
  ---------------------------------------------------------------------------------
                                 Average  Maximum  Maximum  Time of Max    Reported
                                   Depth    Depth      HGL   Occurrence   Max Depth
  Node                 Type         Feet     Feet     Feet  days hr:min        Feet
  ---------------------------------------------------------------------------------
  3rdWinflow           JUNCTION     0.01     1.01   -27.93     0  00:25        1.01
  J1                   JUNCTION     0.01     0.64   -39.46     0  00:43        0.64
  J10                  JUNCTION     0.01     0.63   -42.22     0  00:48        0.63
  J100                 JUNCTION     0.01     1.05   -24.78     0  00:21        1.04
  J101                 JUNCTION     0.01     1.04   -25.10     0  00:22        1.04
  J102                 JUNCTION     0.01     1.04   -25.41     0  00:22        1.03
  J103                 JUNCTION     0.01     1.04   -25.72     0  00:22        1.03
  J104                 JUNCTION     0.01     1.04   -26.03     0  00:23        1.04
  J105                 JUNCTION     0.01     1.03   -26.35     0  00:23        1.03
  J106                 JUNCTION     0.01     1.02   -26.67     0  00:24        1.02
  J107                 JUNCTION     0.01     1.02   -26.99     0  00:24        1.02
  J108                 JUNCTION     0.01     1.02   -27.30     0  00:24        1.02
  J109                 JUNCTION     0.01     1.02   -27.61     0  00:25        1.02
  J11                  JUNCTION     0.01     0.62   -42.53     0  00:48        0.62
  J12                  JUNCTION     0.01     0.62   -42.84     0  00:49        0.62
  J13                  JUNCTION     0.01     0.62   -43.15     0  00:49        0.62
  J14                  JUNCTION     0.01     0.62   -43.45     0  00:50        0.61
  J15                  JUNCTION     0.01     0.61   -43.77     0  00:50        0.61
  J16                  JUNCTION     0.01     0.61   -44.07     0  00:51        0.61
  J17                  JUNCTION     0.01     0.61   -44.38     0  00:52        0.61
  J18                  JUNCTION     0.01     0.61   -44.69     0  00:52        0.61
  J19                  JUNCTION     0.01     0.60   -45.00     0  00:53        0.60
  J2                   JUNCTION     0.01     0.64   -39.76     0  00:44        0.64
  J20                  JUNCTION     0.01     0.60   -45.31     0  00:53        0.60
  J21                  JUNCTION     0.01     0.60   -45.61     0  00:54        0.60
  J22                  JUNCTION     0.01     0.59   -45.93     0  00:55        0.59
  J23                  JUNCTION     0.01     0.59   -46.24     0  00:55        0.59
  J24                  JUNCTION     0.01     0.59   -46.54     0  00:56        0.59
  J25                  JUNCTION     0.01     0.59   -46.85     0  00:56        0.59
  J26                  JUNCTION     0.01     0.58   -47.16     0  00:57        0.58
  J27                  JUNCTION     0.01     0.58   -47.47     0  00:57        0.58
  J28                  JUNCTION     0.01     0.58   -47.78     0  00:58        0.58
  J29                  JUNCTION     0.01     0.58   -48.08     0  00:59        0.57
  J3                   JUNCTION     0.01     0.64   -40.07     0  00:44        0.64
  J30                  JUNCTION     0.01     0.57   -48.40     0  00:59        0.57
  J31                  JUNCTION     0.01     0.57   -48.70     0  01:00        0.57
  J32                  JUNCTION     0.01     0.57   -49.01     0  01:00        0.57
  J33                  JUNCTION     0.01     0.57   -49.31     0  01:01        0.57
  J34                  JUNCTION     0.01     0.56   -49.63     0  01:02        0.56
  J35                  JUNCTION     0.01     0.56   -49.94     0  01:02        0.56
  J36                  JUNCTION     0.01     0.56   -50.24     0  01:03        0.56
  J37                  JUNCTION     0.01     0.55   -50.56     0  01:03        0.55
  J38                  JUNCTION     0.01     0.53   -50.88     0  01:04        0.53
  J39                  JUNCTION     0.01     1.01   -28.25     0  00:26        1.00
  J4                   JUNCTION     0.01     0.64   -40.37     0  00:45        0.64
  J40                  JUNCTION     0.01     1.00   -28.58     0  00:26        1.00
  J41                  JUNCTION     0.01     1.01   -28.89     0  00:26        1.00
  J42                  JUNCTION     0.01     1.00   -29.22     0  00:27        1.00
  J43                  JUNCTION     0.01     1.00   -29.54     0  00:27        1.00
  J44                  JUNCTION     0.01     0.99   -29.86     0  00:28        0.99
  J45                  JUNCTION     0.01     0.98   -30.19     0  00:28        0.98
  J46                  JUNCTION     0.01     0.97   -30.52     0  00:28        0.97
  J47                  JUNCTION     0.01     0.96   -30.85     0  00:29        0.96
  J48                  JUNCTION     0.01     0.94   -31.19     0  00:29        0.94
  J49                  JUNCTION     0.01     0.93   -31.52     0  00:30        0.93
  J5                   JUNCTION     0.01     0.64   -40.68     0  00:45        0.64
  J50                  JUNCTION     0.01     0.92   -31.85     0  00:30        0.92
  J51                  JUNCTION     0.01     0.91   -32.18     0  00:30        0.91
  J52                  JUNCTION     0.01     0.90   -32.51     0  00:31        0.89
  J53                  JUNCTION     0.01     0.88   -32.85     0  00:31        0.88
  J54                  JUNCTION     0.01     0.87   -33.18     0  00:32        0.87
  J55                  JUNCTION     0.01     0.84   -33.52     0  00:32        0.84
  J56                  JUNCTION     0.01     0.83   -33.85     0  00:33        0.83
  J57                  JUNCTION     0.01     0.82   -34.18     0  00:33        0.82
  J58                  JUNCTION     0.01     0.81   -34.51     0  00:34        0.80
  J59                  JUNCTION     0.01     0.79   -34.85     0  00:34        0.79
  J6                   JUNCTION     0.01     0.64   -40.99     0  00:46        0.64
  J60                  JUNCTION     0.01     0.78   -35.18     0  00:35        0.78
  J61                  JUNCTION     0.01     0.77   -35.51     0  00:35        0.77
  J62                  JUNCTION     0.01     0.76   -35.84     0  00:36        0.76
  J63                  JUNCTION     0.01     0.75   -36.17     0  00:36        0.75
  J64                  JUNCTION     0.01     0.74   -36.50     0  00:37        0.74
  J65                  JUNCTION     0.01     0.73   -36.83     0  00:37        0.73
  J66                  JUNCTION     0.01     0.73   -37.15     0  00:38        0.73
  J67                  JUNCTION     0.01     0.72   -37.47     0  00:38        0.72
  J68                  JUNCTION     0.01     0.71   -37.80     0  00:39        0.71
  J69                  JUNCTION     0.01     0.71   -38.12     0  00:39        0.70
  J7                   JUNCTION     0.01     0.63   -41.30     0  00:46        0.63
  J70                  JUNCTION     0.01     0.70   -38.45     0  00:40        0.70
  J71                  JUNCTION     0.01     0.68   -38.79     0  00:40        0.68
  J72                  JUNCTION     0.01     1.93   -15.18     0  00:11        1.85
  J73                  JUNCTION     0.01     1.67   -15.75     0  00:11        1.61
  J74                  JUNCTION     0.01     1.52   -16.21     0  00:12        1.49
  J75                  JUNCTION     0.01     1.44   -16.61     0  00:12        1.42
  J76                  JUNCTION     0.01     1.38   -16.98     0  00:12        1.37
  J77                  JUNCTION     0.01     1.34   -17.33     0  00:13        1.33
  J78                  JUNCTION     0.01     1.30   -17.68     0  00:13        1.30
  J79                  JUNCTION     0.01     1.28   -18.01     0  00:14        1.28
  J8                   JUNCTION     0.01     0.63   -41.61     0  00:47        0.63
  J80                  JUNCTION     0.01     1.26   -18.34     0  00:14        1.25
  J81                  JUNCTION     0.01     1.23   -18.68     0  00:14        1.23
  J82                  JUNCTION     0.01     1.21   -19.01     0  00:15        1.20
  J83                  JUNCTION     0.01     1.20   -19.34     0  00:15        1.19
  J84                  JUNCTION     0.01     1.18   -19.67     0  00:15        1.18
  J85                  JUNCTION     0.01     1.16   -20.00     0  00:16        1.16
  J86                  JUNCTION     0.01     1.15   -20.32     0  00:16        1.15
  J87                  JUNCTION     0.01     1.14   -20.64     0  00:16        1.14
  J88                  JUNCTION     0.01     1.13   -20.96     0  00:17        1.12
  J89                  JUNCTION     0.01     1.12   -21.28     0  00:17        1.11
  J9                   JUNCTION     0.01     0.63   -41.91     0  00:47        0.63
  J90                  JUNCTION     0.01     1.10   -21.61     0  00:18        1.10
  J91                  JUNCTION     0.01     1.10   -21.93     0  00:18        1.10
  J92                  JUNCTION     0.01     1.09   -22.25     0  00:18        1.09
  J93                  JUNCTION     0.01     1.08   -22.57     0  00:19        1.08
  J94                  JUNCTION     0.01     1.07   -22.89     0  00:19        1.07
  J95                  JUNCTION     0.01     1.07   -23.20     0  00:19        1.07
  J96                  JUNCTION     0.01     1.07   -23.51     0  00:20        1.06
  J97                  JUNCTION     0.01     1.06   -23.83     0  00:20        1.05
  J98                  JUNCTION     0.01     1.05   -24.15     0  00:21        1.05
  J99                  JUNCTION     0.01     1.05   -24.47     0  00:21        1.05
  J110                 OUTFALL      0.00     0.00     0.00     0  00:00        0.00
  11thNWdrop           STORAGE      0.01     0.64   -39.15     0  00:43        0.64
  BALLARD_DS           STORAGE      3.68     3.87   -66.13     0  02:50        3.87
  East_Portal          STORAGE      0.01     2.60   -14.20     0  00:11        2.38
  SU1                  STORAGE      0.12    26.60     9.80     0  00:00       22.09
  
  
  *******************
  Node Inflow Summary
  *******************
  
  -------------------------------------------------------------------------------------------------
                                  Maximum  Maximum                  Lateral       Total        Flow
                                  Lateral    Total  Time of Max      Inflow      Inflow     Balance
                                   Inflow   Inflow   Occurrence      Volume      Volume       Error
  Node                 Type           CFS      CFS  days hr:min    10^6 gal    10^6 gal     Percent
  -------------------------------------------------------------------------------------------------
  3rdWinflow           JUNCTION      0.00    24.19     0  00:25           0      0.0672       0.046
  J1                   JUNCTION      0.00     9.29     0  00:43           0      0.0644       0.037
  J10                  JUNCTION      0.00     8.97     0  00:47           0      0.0642       0.048
  J100                 JUNCTION      0.00    25.94     0  00:21           0      0.0677       0.110
  J101                 JUNCTION      0.00    25.63     0  00:21           0      0.0676       0.100
  J102                 JUNCTION      0.00    25.41     0  00:22           0      0.0676       0.105
  J103                 JUNCTION      0.00    25.28     0  00:22           0      0.0675       0.087
  J104                 JUNCTION      0.00    24.97     0  00:23           0      0.0674       0.107
  J105                 JUNCTION      0.00    25.00     0  00:23           0      0.0674       0.066
  J106                 JUNCTION      0.00    24.66     0  00:23           0      0.0673       0.084
  J107                 JUNCTION      0.00    24.54     0  00:24           0      0.0673       0.060
  J108                 JUNCTION      0.00    24.37     0  00:24           0      0.0672       0.036
  J109                 JUNCTION      0.00    24.22     0  00:25           0      0.0672       0.036
  J11                  JUNCTION      0.00     8.90     0  00:48           0      0.0642       0.046
  J12                  JUNCTION      0.00     8.84     0  00:48           0      0.0641       0.047
  J13                  JUNCTION      0.00     8.76     0  00:49           0      0.0641       0.047
  J14                  JUNCTION      0.00     8.64     0  00:50           0      0.0641       0.042
  J15                  JUNCTION      0.00     8.60     0  00:50           0       0.064       0.021
  J16                  JUNCTION      0.00     8.51     0  00:51           0       0.064       0.031
  J17                  JUNCTION      0.00     8.44     0  00:51           0       0.064       0.058
  J18                  JUNCTION      0.00     8.35     0  00:52           0       0.064       0.055
  J19                  JUNCTION      0.00     8.24     0  00:52           0      0.0639       0.036
  J2                   JUNCTION      0.00     9.30     0  00:43           0      0.0644       0.025
  J20                  JUNCTION      0.00     8.18     0  00:53           0      0.0639       0.030
  J21                  JUNCTION      0.00     8.08     0  00:54           0      0.0639       0.033
  J22                  JUNCTION      0.00     8.04     0  00:54           0      0.0639       0.020
  J23                  JUNCTION      0.00     7.94     0  00:55           0      0.0639       0.021
  J24                  JUNCTION      0.00     7.88     0  00:55           0      0.0638       0.018
  J25                  JUNCTION      0.00     7.80     0  00:56           0      0.0638       0.029
  J26                  JUNCTION      0.00     7.75     0  00:57           0      0.0638       0.006
  J27                  JUNCTION      0.00     7.68     0  00:57           0      0.0638       0.028
  J28                  JUNCTION      0.00     7.61     0  00:58           0      0.0638       0.018
  J29                  JUNCTION      0.00     7.49     0  00:58           0      0.0638       0.019
  J3                   JUNCTION      0.00     9.29     0  00:44           0      0.0644       0.045
  J30                  JUNCTION      0.00     7.45     0  00:59           0      0.0638       0.007
  J31                  JUNCTION      0.00     7.37     0  01:00           0      0.0638       0.009
  J32                  JUNCTION      0.00     7.32     0  01:00           0      0.0638       0.003
  J33                  JUNCTION      0.00     7.24     0  01:01           0      0.0638       0.021
  J34                  JUNCTION      0.00     7.19     0  01:01           0      0.0637       0.001
  J35                  JUNCTION      0.00     7.13     0  01:02           0      0.0637       0.007
  J36                  JUNCTION      0.00     7.06     0  01:03           0      0.0637      -0.004
  J37                  JUNCTION      0.00     7.00     0  01:03           0      0.0637       0.014
  J38                  JUNCTION      0.00     7.03     0  01:04           0      0.0637       0.043
  J39                  JUNCTION      0.00    24.08     0  00:25           0      0.0671       0.030
  J4                   JUNCTION      0.00     9.26     0  00:44           0      0.0644       0.047
  J40                  JUNCTION      0.00    23.77     0  00:26           0      0.0671       0.035
  J41                  JUNCTION      0.00    23.82     0  00:26           0      0.0671       0.031
  J42                  JUNCTION      0.00    23.68     0  00:27           0      0.0671       0.010
  J43                  JUNCTION      0.00    23.41     0  00:27           0      0.0671       0.022
  J44                  JUNCTION      0.00    23.35     0  00:27           0       0.067       0.032
  J45                  JUNCTION      0.00    23.03     0  00:28           0       0.067       0.044
  J46                  JUNCTION      0.00    22.76     0  00:28           0       0.067       0.061
  J47                  JUNCTION      0.00    22.47     0  00:29           0       0.067       0.073
  J48                  JUNCTION      0.00    22.04     0  00:29           0      0.0669       0.082
  J49                  JUNCTION      0.00    21.47     0  00:29           0      0.0669       0.127
  J5                   JUNCTION      0.00     9.24     0  00:45           0      0.0643       0.047
  J50                  JUNCTION      0.00    21.15     0  00:30           0      0.0668       0.148
  J51                  JUNCTION      0.00    20.59     0  00:30           0      0.0667       0.158
  J52                  JUNCTION      0.00    20.09     0  00:31           0      0.0666       0.177
  J53                  JUNCTION      0.00    19.28     0  00:31           0      0.0664       0.224
  J54                  JUNCTION      0.00    18.80     0  00:31           0      0.0663       0.257
  J55                  JUNCTION      0.00    18.06     0  00:32           0      0.0661       0.235
  J56                  JUNCTION      0.00    17.31     0  00:32           0       0.066       0.225
  J57                  JUNCTION      0.00    16.62     0  00:33           0      0.0658       0.203
  J58                  JUNCTION      0.00    16.03     0  00:33           0      0.0657       0.178
  J59                  JUNCTION      0.00    15.57     0  00:34           0      0.0656       0.163
  J6                   JUNCTION      0.00     9.21     0  00:45           0      0.0643       0.045
  J60                  JUNCTION      0.00    15.07     0  00:34           0      0.0655       0.147
  J61                  JUNCTION      0.00    14.59     0  00:35           0      0.0654       0.150
  J62                  JUNCTION      0.00    14.20     0  00:35           0      0.0653       0.145
  J63                  JUNCTION      0.00    13.80     0  00:36           0      0.0652       0.143
  J64                  JUNCTION      0.00    13.43     0  00:36           0      0.0651       0.136
  J65                  JUNCTION      0.00    13.09     0  00:37           0       0.065       0.133
  J66                  JUNCTION      0.00    12.76     0  00:37           0      0.0649       0.130
  J67                  JUNCTION      0.00    12.46     0  00:38           0      0.0648       0.126
  J68                  JUNCTION      0.00    12.23     0  00:38           0      0.0647       0.125
  J69                  JUNCTION      0.00    11.99     0  00:39           0      0.0647       0.117
  J7                   JUNCTION      0.00     9.15     0  00:46           0      0.0643       0.049
  J70                  JUNCTION      0.00    11.77     0  00:40           0      0.0646       0.131
  J71                  JUNCTION      0.00    11.60     0  00:40           0      0.0645      -0.101
  J72                  JUNCTION      0.00   130.73     0  00:11           0      0.0762       3.449
  J73                  JUNCTION      0.00    80.06     0  00:11           0      0.0736       1.465
  J74                  JUNCTION      0.00    62.72     0  00:12           0      0.0726       1.067
  J75                  JUNCTION      0.00    53.44     0  00:12           0      0.0718       0.771
  J76                  JUNCTION      0.00    48.08     0  00:12           0      0.0713       0.596
  J77                  JUNCTION      0.00    44.47     0  00:13           0      0.0708       0.471
  J78                  JUNCTION      0.00    41.98     0  00:13           0      0.0705       0.357
  J79                  JUNCTION      0.00    39.88     0  00:13           0      0.0703       0.320
  J8                   JUNCTION      0.00     9.12     0  00:46           0      0.0643       0.047
  J80                  JUNCTION      0.00    38.40     0  00:14           0        0.07       0.309
  J81                  JUNCTION      0.00    37.10     0  00:14           0      0.0698       0.238
  J82                  JUNCTION      0.00    35.57     0  00:14           0      0.0697       0.233
  J83                  JUNCTION      0.00    34.65     0  00:15           0      0.0695       0.202
  J84                  JUNCTION      0.00    33.69     0  00:15           0      0.0694       0.157
  J85                  JUNCTION      0.00    32.69     0  00:15           0      0.0692       0.132
  J86                  JUNCTION      0.00    31.98     0  00:16           0      0.0692       0.120
  J87                  JUNCTION      0.00    31.39     0  00:16           0      0.0691       0.113
  J88                  JUNCTION      0.00    30.73     0  00:17           0       0.069       0.106
  J89                  JUNCTION      0.00    30.22     0  00:17           0      0.0689       0.119
  J9                   JUNCTION      0.00     9.04     0  00:47           0      0.0642       0.046
  J90                  JUNCTION      0.00    29.30     0  00:17           0      0.0688       0.101
  J91                  JUNCTION      0.00    28.77     0  00:18           0      0.0688       0.118
  J92                  JUNCTION      0.00    28.54     0  00:18           0      0.0687       0.213
  J93                  JUNCTION      0.00    28.13     0  00:18           0      0.0685       0.224
  J94                  JUNCTION      0.00    27.59     0  00:19           0      0.0684       0.212
  J95                  JUNCTION      0.00    27.12     0  00:19           0      0.0682       0.188
  J96                  JUNCTION      0.00    26.97     0  00:20           0      0.0681       0.162
  J97                  JUNCTION      0.00    26.53     0  00:20           0       0.068       0.175
  J98                  JUNCTION      0.00    26.20     0  00:20           0      0.0679       0.158
  J99                  JUNCTION      0.00    26.05     0  00:21           0      0.0678       0.113
  J110                 OUTFALL       0.00     0.00     0  00:00           0           0       0.000 gal
  11thNWdrop           STORAGE       0.00    11.70     0  00:41           0      0.0646       0.201
  BALLARD_DS           STORAGE       0.00     6.77     0  01:05           0      0.0637      -0.003
  East_Portal          STORAGE       0.00   912.24     0  00:00           0      0.0813       4.876
  SU1                  STORAGE       0.00    27.05     0  00:11           0      0.0814       0.026
  
  
  **********************
  Node Surcharge Summary
  **********************
  
  No nodes were surcharged.
  
  
  *********************
  Node Flooding Summary
  *********************
  
  No nodes were flooded.
  
  
  **********************
  Storage Volume Summary
  **********************
  
  --------------------------------------------------------------------------------------------------
                         Average     Avg  Evap Exfil       Maximum     Max    Time of Max    Maximum
                          Volume    Pcnt  Pcnt  Pcnt        Volume    Pcnt     Occurrence    Outflow
  Storage Unit          1000 ft3    Full  Loss  Loss      1000 ft3    Full    days hr:min        CFS
  --------------------------------------------------------------------------------------------------
  11thNWdrop               0.011       0     0     0         0.687       1       0  00:43       9.29
  BALLARD_DS               8.102       4     0     0         8.517       4       0  02:50       0.00
  East_Portal              0.003       0     0     0         1.045       4       0  00:11     157.77
  SU1                      0.047       0     0     0        10.693      43       0  00:00     912.24
  
  
  ***********************
  Outfall Loading Summary
  ***********************
  
  -----------------------------------------------------------
                         Flow       Avg       Max       Total
                         Freq      Flow      Flow      Volume
  Outfall Node           Pcnt       CFS       CFS    10^6 gal
  -----------------------------------------------------------
  J110                   0.00      0.00      0.00       0.000
  -----------------------------------------------------------
  System                 0.00      0.00      0.00       0.000
  
  
  ********************
  Link Flow Summary
  ********************
  
  -----------------------------------------------------------------------------
                                 Maximum  Time of Max   Maximum    Max/    Max/
                                  |Flow|   Occurrence   |Veloc|    Full    Full
  Link                 Type          CFS  days hr:min    ft/sec    Flow   Depth
  -----------------------------------------------------------------------------
  C1                   CONDUIT      0.00     0  00:00      0.00    0.00    0.00
  C1_1                 CONDUIT      9.29     0  00:43      3.26    0.00    0.04
  C1_10                CONDUIT      8.97     0  00:47      3.37    0.00    0.03
  C1_100               CONDUIT     26.20     0  00:20      4.49    0.01    0.06
  C1_101               CONDUIT     26.05     0  00:21      4.46    0.01    0.06
  C1_102               CONDUIT     25.94     0  00:21      4.45    0.01    0.06
  C1_103               CONDUIT     25.63     0  00:21      4.44    0.01    0.06
  C1_104               CONDUIT     25.41     0  00:22      4.41    0.01    0.06
  C1_105               CONDUIT     25.28     0  00:22      4.41    0.01    0.06
  C1_106               CONDUIT     24.97     0  00:23      4.40    0.01    0.06
  C1_107               CONDUIT     25.00     0  00:23      4.41    0.01    0.06
  C1_108               CONDUIT     24.66     0  00:23      4.38    0.01    0.06
  C1_109               CONDUIT     24.54     0  00:24      4.39    0.01    0.06
  C1_11                CONDUIT      8.90     0  00:48      3.38    0.00    0.03
  C1_110               CONDUIT     24.37     0  00:24      4.34    0.01    0.06
  C1_111               CONDUIT     24.22     0  00:25      4.35    0.01    0.06
  C1_112               CONDUIT     24.19     0  00:25      4.36    0.01    0.06
  C1_12                CONDUIT      8.84     0  00:48      3.37    0.00    0.03
  C1_13                CONDUIT      8.76     0  00:49      3.37    0.00    0.03
  C1_14                CONDUIT      8.64     0  00:50      3.36    0.00    0.03
  C1_15                CONDUIT      8.60     0  00:50      3.34    0.00    0.03
  C1_16                CONDUIT      8.51     0  00:51      3.35    0.00    0.03
  C1_17                CONDUIT      8.44     0  00:51      3.40    0.00    0.03
  C1_18                CONDUIT      8.35     0  00:52      3.34    0.00    0.03
  C1_19                CONDUIT      8.24     0  00:52      3.31    0.00    0.03
  C1_2                 CONDUIT      9.30     0  00:43      3.26    0.00    0.04
  C1_20                CONDUIT      8.18     0  00:53      3.30    0.00    0.03
  C1_21                CONDUIT      8.08     0  00:54      3.30    0.00    0.03
  C1_22                CONDUIT      8.04     0  00:54      3.31    0.00    0.03
  C1_23                CONDUIT      7.94     0  00:55      3.28    0.00    0.03
  C1_24                CONDUIT      7.88     0  00:55      3.28    0.00    0.03
  C1_25                CONDUIT      7.80     0  00:56      3.30    0.00    0.03
  C1_26                CONDUIT      7.75     0  00:57      3.22    0.00    0.03
  C1_27                CONDUIT      7.68     0  00:57      3.31    0.00    0.03
  C1_28                CONDUIT      7.61     0  00:58      3.27    0.00    0.03
  C1_29                CONDUIT      7.49     0  00:58      3.24    0.00    0.03
  C1_3                 CONDUIT      9.29     0  00:44      3.33    0.00    0.04
  C1_30                CONDUIT      7.45     0  00:59      3.23    0.00    0.03
  C1_31                CONDUIT      7.37     0  01:00      3.23    0.00    0.03
  C1_32                CONDUIT      7.32     0  01:00      3.19    0.00    0.03
  C1_33                CONDUIT      7.24     0  01:01      3.26    0.00    0.03
  C1_34                CONDUIT      7.19     0  01:01      3.18    0.00    0.03
  C1_35                CONDUIT      7.13     0  01:02      3.22    0.00    0.03
  C1_36                CONDUIT      7.06     0  01:03      3.17    0.00    0.03
  C1_37                CONDUIT      7.00     0  01:03      3.25    0.00    0.03
  C1_38                CONDUIT      7.03     0  01:04      3.47    0.00    0.03
  C1_39                CONDUIT      6.77     0  01:05      4.08    0.00    0.02
  C1_4                 CONDUIT      9.26     0  00:44      3.32    0.00    0.04
  C1_40                CONDUIT     24.08     0  00:25      4.37    0.01    0.05
  C1_41                CONDUIT     23.77     0  00:26      4.36    0.01    0.05
  C1_42                CONDUIT     23.82     0  00:26      4.36    0.01    0.05
  C1_43                CONDUIT     23.68     0  00:27      4.35    0.01    0.05
  C1_44                CONDUIT     23.41     0  00:27      4.32    0.01    0.05
  C1_45                CONDUIT     23.35     0  00:27      4.33    0.01    0.05
  C1_46                CONDUIT     23.03     0  00:28      4.34    0.01    0.05
  C1_47                CONDUIT     22.76     0  00:28      4.33    0.01    0.05
  C1_48                CONDUIT     22.47     0  00:29      4.33    0.01    0.05
  C1_49                CONDUIT     22.04     0  00:29      4.34    0.01    0.05
  C1_5                 CONDUIT      9.24     0  00:45      3.36    0.00    0.04
  C1_50                CONDUIT     21.47     0  00:29      4.32    0.01    0.05
  C1_51                CONDUIT     21.15     0  00:30      4.32    0.01    0.05
  C1_52                CONDUIT     20.59     0  00:30      4.33    0.01    0.05
  C1_53                CONDUIT     20.09     0  00:31      4.36    0.00    0.05
  C1_54                CONDUIT     19.28     0  00:31      4.43    0.00    0.05
  C1_55                CONDUIT     18.80     0  00:31      4.43    0.00    0.05
  C1_56                CONDUIT     18.06     0  00:32      4.38    0.00    0.05
  C1_57                CONDUIT     17.31     0  00:32      4.36    0.00    0.05
  C1_58                CONDUIT     16.62     0  00:33      4.32    0.00    0.04
  C1_59                CONDUIT     16.03     0  00:33      4.28    0.00    0.04
  C1_6                 CONDUIT      9.21     0  00:45      3.35    0.00    0.04
  C1_60                CONDUIT     15.57     0  00:34      4.20    0.00    0.04
  C1_61                CONDUIT     15.07     0  00:34      4.17    0.00    0.04
  C1_62                CONDUIT     14.59     0  00:35      4.13    0.00    0.04
  C1_63                CONDUIT     14.20     0  00:35      4.08    0.00    0.04
  C1_64                CONDUIT     13.80     0  00:36      4.05    0.00    0.04
  C1_65                CONDUIT     13.43     0  00:36      4.01    0.00    0.04
  C1_66                CONDUIT     13.09     0  00:37      3.97    0.00    0.04
  C1_67                CONDUIT     12.76     0  00:37      3.92    0.00    0.04
  C1_68                CONDUIT     12.46     0  00:38      3.88    0.00    0.04
  C1_69                CONDUIT     12.23     0  00:38      3.86    0.00    0.04
  C1_7                 CONDUIT      9.15     0  00:46      3.37    0.00    0.04
  C1_70                CONDUIT     11.99     0  00:39      3.84    0.00    0.04
  C1_71                CONDUIT     11.77     0  00:40      3.82    0.00    0.04
  C1_72                CONDUIT     11.60     0  00:40      3.74    0.00    0.04
  C1_73                CONDUIT     11.70     0  00:41      5.82    0.00    0.04
  C1_74                CONDUIT    130.73     0  00:11      8.52    0.03    0.11
  C1_75                CONDUIT     80.06     0  00:11      6.81    0.02    0.09
  C1_76                CONDUIT     62.72     0  00:12      6.31    0.02    0.08
  C1_77                CONDUIT     53.44     0  00:12      5.88    0.01    0.08
  C1_78                CONDUIT     48.08     0  00:12      5.55    0.01    0.08
  C1_79                CONDUIT     44.47     0  00:13      5.33    0.01    0.07
  C1_8                 CONDUIT      9.12     0  00:46      3.36    0.00    0.03
  C1_80                CONDUIT     41.98     0  00:13      5.20    0.01    0.07
  C1_81                CONDUIT     39.88     0  00:13      5.11    0.01    0.07
  C1_82                CONDUIT     38.40     0  00:14      5.05    0.01    0.07
  C1_83                CONDUIT     37.10     0  00:14      5.00    0.01    0.07
  C1_84                CONDUIT     35.57     0  00:14      4.93    0.01    0.07
  C1_85                CONDUIT     34.65     0  00:15      4.89    0.01    0.07
  C1_86                CONDUIT     33.69     0  00:15      4.84    0.01    0.06
  C1_87                CONDUIT     32.69     0  00:15      4.79    0.01    0.06
  C1_88                CONDUIT     31.98     0  00:16      4.76    0.01    0.06
  C1_89                CONDUIT     31.39     0  00:16      4.73    0.01    0.06
  C1_9                 CONDUIT      9.04     0  00:47      3.38    0.00    0.03
  C1_90                CONDUIT     30.73     0  00:17      4.69    0.01    0.06
  C1_91                CONDUIT     30.22     0  00:17      4.69    0.01    0.06
  C1_92                CONDUIT     29.30     0  00:17      4.66    0.01    0.06
  C1_93                CONDUIT     28.77     0  00:18      4.62    0.01    0.06
  C1_94                CONDUIT     28.54     0  00:18      4.60    0.01    0.06
  C1_95                CONDUIT     28.13     0  00:18      4.59    0.01    0.06
  C1_96                CONDUIT     27.59     0  00:19      4.56    0.01    0.06
  C1_97                CONDUIT     27.12     0  00:19      4.51    0.01    0.06
  C1_98                CONDUIT     26.97     0  00:20      4.52    0.01    0.06
  C1_99                CONDUIT     26.53     0  00:20      4.47    0.01    0.06
  OF1                  ORIFICE    912.24     0  00:00                      1.00
  
  
  ***************************
  Flow Classification Summary
  ***************************
  
  -------------------------------------------------------------------------------------
                      Adjusted    ---------- Fraction of Time in Flow Class ---------- 
                       /Actual         Up    Down  Sub   Sup   Up    Down  Norm  Inlet 
  Conduit               Length    Dry  Dry   Dry   Crit  Crit  Crit  Crit  Ltd   Ctrl  
  -------------------------------------------------------------------------------------
  C1                      1.00   1.00  0.00  0.00  0.00  0.00  0.00  0.00  0.00  0.00
  C1_1                    1.00   0.91  0.00  0.00  0.09  0.00  0.00  0.00  0.09  0.00
  C1_10                   1.00   0.91  0.00  0.00  0.09  0.00  0.00  0.00  0.98  0.00
  C1_100                  1.00   0.94  0.01  0.00  0.05  0.00  0.00  0.00  0.03  0.00
  C1_101                  1.00   0.94  0.01  0.00  0.05  0.00  0.00  0.00  0.04  0.00
  C1_102                  1.00   0.94  0.01  0.00  0.05  0.00  0.00  0.00  0.04  0.00
  C1_103                  1.00   0.94  0.01  0.00  0.05  0.00  0.00  0.00  0.03  0.00
  C1_104                  1.00   0.94  0.01  0.00  0.05  0.00  0.00  0.00  0.95  0.00
  C1_105                  1.00   0.94  0.01  0.00  0.05  0.00  0.00  0.00  0.94  0.00
  C1_106                  1.00   0.94  0.01  0.00  0.05  0.00  0.00  0.00  0.95  0.00
  C1_107                  1.00   0.94  0.01  0.00  0.06  0.00  0.00  0.00  0.95  0.00
  C1_108                  1.00   0.94  0.01  0.00  0.06  0.00  0.00  0.00  0.94  0.00
  C1_109                  1.00   0.94  0.01  0.00  0.05  0.00  0.00  0.00  0.95  0.00
  C1_11                   1.00   0.91  0.00  0.00  0.09  0.00  0.00  0.00  0.03  0.00
  C1_110                  1.00   0.94  0.01  0.00  0.06  0.00  0.00  0.00  0.94  0.00
  C1_111                  1.00   0.94  0.01  0.00  0.06  0.00  0.00  0.00  0.95  0.00
  C1_112                  1.00   0.94  0.01  0.00  0.06  0.00  0.00  0.00  0.03  0.00
  C1_12                   1.00   0.91  0.00  0.00  0.09  0.00  0.00  0.00  0.04  0.00
  C1_13                   1.00   0.91  0.00  0.00  0.09  0.00  0.00  0.00  0.98  0.00
  C1_14                   1.00   0.91  0.00  0.00  0.09  0.00  0.00  0.00  0.04  0.00
  C1_15                   1.00   0.91  0.00  0.00  0.09  0.00  0.00  0.00  0.97  0.00
  C1_16                   1.00   0.91  0.00  0.00  0.09  0.00  0.00  0.00  0.94  0.00
  C1_17                   1.00   0.91  0.00  0.00  0.09  0.00  0.00  0.00  0.05  0.00
  C1_18                   1.00   0.91  0.00  0.00  0.09  0.00  0.00  0.00  0.07  0.00
  C1_19                   1.00   0.91  0.00  0.00  0.09  0.00  0.00  0.00  0.94  0.00
  C1_2                    1.00   0.91  0.00  0.00  0.09  0.00  0.00  0.00  0.03  0.00
  C1_20                   1.00   0.91  0.00  0.00  0.09  0.00  0.00  0.00  0.96  0.00
  C1_21                   1.00   0.91  0.00  0.00  0.09  0.00  0.00  0.00  0.04  0.00
  C1_22                   1.00   0.91  0.00  0.00  0.09  0.00  0.00  0.00  0.05  0.00
  C1_23                   1.00   0.91  0.00  0.00  0.09  0.00  0.00  0.00  0.96  0.00
  C1_24                   1.00   0.91  0.00  0.00  0.09  0.00  0.00  0.00  0.04  0.00
  C1_25                   1.00   0.91  0.00  0.00  0.09  0.00  0.00  0.00  0.06  0.00
  C1_26                   1.00   0.91  0.00  0.00  0.09  0.00  0.00  0.00  0.04  0.00
  C1_27                   1.00   0.91  0.01  0.00  0.09  0.00  0.00  0.00  0.05  0.00
  C1_28                   1.00   0.91  0.01  0.00  0.09  0.00  0.00  0.00  0.96  0.00
  C1_29                   1.00   0.91  0.01  0.00  0.09  0.00  0.00  0.00  0.04  0.00
  C1_3                    1.00   0.91  0.00  0.00  0.09  0.00  0.00  0.00  0.99  0.00
  C1_30                   1.00   0.91  0.01  0.00  0.09  0.00  0.00  0.00  0.06  0.00
  C1_31                   1.00   0.91  0.01  0.00  0.09  0.00  0.00  0.00  0.04  0.00
  C1_32                   1.00   0.91  0.01  0.00  0.08  0.00  0.00  0.00  0.06  0.00
  C1_33                   1.00   0.91  0.01  0.00  0.09  0.00  0.00  0.00  0.04  0.00
  C1_34                   1.00   0.91  0.01  0.00  0.08  0.00  0.00  0.00  0.04  0.00
  C1_35                   1.00   0.91  0.01  0.00  0.08  0.00  0.00  0.00  0.06  0.00
  C1_36                   1.00   0.91  0.01  0.00  0.09  0.00  0.00  0.00  0.04  0.00
  C1_37                   1.00   0.91  0.01  0.00  0.08  0.00  0.00  0.00  0.05  0.00
  C1_38                   1.00   0.91  0.01  0.00  0.08  0.00  0.00  0.00  0.06  0.00
  C1_39                   1.00   0.91  0.00  0.00  0.00  0.00  0.00  0.09  0.00  0.00
  C1_4                    1.00   0.91  0.00  0.00  0.09  0.00  0.00  0.00  0.03  0.00
  C1_40                   1.00   0.94  0.01  0.00  0.06  0.00  0.00  0.00  0.04  0.00
  C1_41                   1.00   0.94  0.01  0.00  0.06  0.00  0.00  0.00  0.04  0.00
  C1_42                   1.00   0.94  0.01  0.00  0.06  0.00  0.00  0.00  0.04  0.00
  C1_43                   1.00   0.94  0.01  0.00  0.06  0.00  0.00  0.00  0.03  0.00
  C1_44                   1.00   0.94  0.01  0.00  0.06  0.00  0.00  0.00  0.04  0.00
  C1_45                   1.00   0.94  0.01  0.00  0.06  0.00  0.00  0.00  0.03  0.00
  C1_46                   1.00   0.94  0.01  0.00  0.06  0.00  0.00  0.00  0.03  0.00
  C1_47                   1.00   0.94  0.01  0.00  0.06  0.00  0.00  0.00  0.04  0.00
  C1_48                   1.00   0.94  0.01  0.00  0.06  0.00  0.00  0.00  0.04  0.00
  C1_49                   1.00   0.94  0.01  0.00  0.06  0.00  0.00  0.00  0.04  0.00
  C1_5                    1.00   0.91  0.00  0.00  0.09  0.00  0.00  0.00  0.94  0.00
  C1_50                   1.00   0.94  0.01  0.00  0.06  0.00  0.00  0.00  0.04  0.00
  C1_51                   1.00   0.94  0.01  0.00  0.06  0.00  0.00  0.00  0.04  0.00
  C1_52                   1.00   0.94  0.01  0.00  0.06  0.00  0.00  0.00  0.95  0.00
  C1_53                   1.00   0.94  0.01  0.00  0.06  0.00  0.00  0.00  0.95  0.00
  C1_54                   1.00   0.94  0.01  0.00  0.06  0.00  0.00  0.00  0.95  0.00
  C1_55                   1.00   0.94  0.01  0.00  0.06  0.00  0.00  0.00  0.96  0.00
  C1_56                   1.00   0.94  0.01  0.00  0.06  0.00  0.00  0.00  0.95  0.00
  C1_57                   1.00   0.94  0.01  0.00  0.06  0.00  0.00  0.00  0.04  0.00
  C1_58                   1.00   0.93  0.01  0.00  0.06  0.00  0.00  0.00  0.04  0.00
  C1_59                   1.00   0.94  0.00  0.00  0.06  0.00  0.00  0.00  0.04  0.00
  C1_6                    1.00   0.91  0.00  0.00  0.09  0.00  0.00  0.00  0.99  0.00
  C1_60                   1.00   0.94  0.01  0.00  0.06  0.00  0.00  0.00  0.04  0.00
  C1_61                   1.00   0.93  0.01  0.00  0.06  0.00  0.00  0.00  0.04  0.00
  C1_62                   1.00   0.93  0.01  0.00  0.06  0.00  0.00  0.00  0.04  0.00
  C1_63                   1.00   0.93  0.01  0.00  0.06  0.00  0.00  0.00  0.95  0.00
  C1_64                   1.00   0.93  0.01  0.00  0.06  0.00  0.00  0.00  0.04  0.00
  C1_65                   1.00   0.93  0.01  0.00  0.06  0.00  0.00  0.00  0.95  0.00
  C1_66                   1.00   0.93  0.01  0.00  0.06  0.00  0.00  0.00  0.95  0.00
  C1_67                   1.00   0.93  0.01  0.00  0.06  0.00  0.00  0.00  0.96  0.00
  C1_68                   1.00   0.93  0.00  0.00  0.06  0.00  0.00  0.00  0.95  0.00
  C1_69                   1.00   0.93  0.01  0.00  0.06  0.00  0.00  0.00  0.96  0.00
  C1_7                    1.00   0.91  0.00  0.00  0.09  0.00  0.00  0.00  0.03  0.00
  C1_70                   1.00   0.93  0.00  0.00  0.06  0.00  0.00  0.00  0.96  0.00
  C1_71                   1.00   0.93  0.00  0.00  0.06  0.00  0.00  0.00  0.95  0.00
  C1_72                   1.00   0.93  0.00  0.00  0.06  0.00  0.00  0.00  0.96  0.00
  C1_73                   1.00   0.91  0.03  0.00  0.06  0.00  0.00  0.00  0.97  0.00
  C1_74                   1.00   0.93  0.01  0.00  0.06  0.00  0.00  0.00  0.02  0.00
  C1_75                   1.00   0.93  0.01  0.00  0.06  0.00  0.00  0.00  0.04  0.00
  C1_76                   1.00   0.93  0.00  0.00  0.06  0.00  0.00  0.00  0.02  0.00
  C1_77                   1.00   0.93  0.00  0.00  0.06  0.00  0.00  0.00  0.05  0.00
  C1_78                   1.00   0.93  0.00  0.00  0.06  0.00  0.00  0.00  0.03  0.00
  C1_79                   1.00   0.93  0.00  0.00  0.06  0.00  0.00  0.00  0.03  0.00
  C1_8                    1.00   0.91  0.00  0.00  0.09  0.00  0.00  0.00  0.99  0.00
  C1_80                   1.00   0.94  0.00  0.00  0.06  0.00  0.00  0.00  0.03  0.00
  C1_81                   1.00   0.94  0.00  0.00  0.06  0.00  0.00  0.00  0.03  0.00
  C1_82                   1.00   0.94  0.00  0.00  0.06  0.00  0.00  0.00  0.03  0.00
  C1_83                   1.00   0.94  0.00  0.00  0.06  0.00  0.00  0.00  0.03  0.00
  C1_84                   1.00   0.94  0.00  0.00  0.06  0.00  0.00  0.00  0.03  0.00
  C1_85                   1.00   0.94  0.00  0.00  0.06  0.00  0.00  0.00  0.03  0.00
  C1_86                   1.00   0.94  0.00  0.00  0.06  0.00  0.00  0.00  0.95  0.00
  C1_87                   1.00   0.94  0.00  0.00  0.06  0.00  0.00  0.00  0.95  0.00
  C1_88                   1.00   0.94  0.00  0.00  0.06  0.00  0.00  0.00  0.95  0.00
  C1_89                   1.00   0.94  0.00  0.00  0.06  0.00  0.00  0.00  0.95  0.00
  C1_9                    1.00   0.91  0.00  0.00  0.09  0.00  0.00  0.00  0.03  0.00
  C1_90                   1.00   0.94  0.00  0.00  0.06  0.00  0.00  0.00  0.95  0.00
  C1_91                   1.00   0.94  0.00  0.00  0.06  0.00  0.00  0.00  0.95  0.00
  C1_92                   1.00   0.94  0.01  0.00  0.06  0.00  0.00  0.00  0.94  0.00
  C1_93                   1.00   0.94  0.01  0.00  0.06  0.00  0.00  0.00  0.95  0.00
  C1_94                   1.00   0.94  0.01  0.00  0.05  0.00  0.00  0.00  0.95  0.00
  C1_95                   1.00   0.94  0.01  0.00  0.06  0.00  0.00  0.00  0.95  0.00
  C1_96                   1.00   0.94  0.01  0.00  0.06  0.00  0.00  0.00  0.95  0.00
  C1_97                   1.00   0.94  0.01  0.00  0.06  0.00  0.00  0.00  0.95  0.00
  C1_98                   1.00   0.94  0.01  0.00  0.06  0.00  0.00  0.00  0.03  0.00
  C1_99                   1.00   0.94  0.01  0.00  0.05  0.00  0.00  0.00  0.03  0.00
  
  
  *************************
  Conduit Surcharge Summary
  *************************
  
  No conduits were surcharged.
  

  Analysis begun on:  Tue Nov 20 16:51:10 2018
  Analysis ended on:  Tue Nov 20 16:54:22 2018
  Total elapsed time: 00:03:12