
  EPA STORM WATER MANAGEMENT MODEL - VERSION 5.1 (Build 5.1.013)
  --------------------------------------------------------------

  Scenario Run :  1DONLY 
  
  WARNING 02: maximum depth increased for Node 140
  WARNING 02: maximum depth increased for Node 173
  WARNING 02: maximum depth increased for Node 25
  WARNING 02: maximum depth increased for Node 255
  WARNING 02: maximum depth increased for Node 26
  WARNING 02: maximum depth increased for Node 261
  WARNING 02: maximum depth increased for Node 276
  WARNING 02: maximum depth increased for Node 31
  WARNING 02: maximum depth increased for Node 74
  WARNING 02: maximum depth increased for Node 77
  WARNING 02: maximum depth increased for Node JCT-10
  WARNING 02: maximum depth increased for Node JCT-160
  WARNING 02: maximum depth increased for Node JCT-162
  WARNING 02: maximum depth increased for Node JCT-164
  WARNING 02: maximum depth increased for Node JCT-166
  WARNING 02: maximum depth increased for Node JCT-168
  WARNING 02: maximum depth increased for Node JCT-170
  
  **********************           Volume        Volume
  Rainfall Dependent I/I        acre-feet      10^6 gal
  **********************        ---------     ---------
  Sewershed Rainfall ......       173.471        56.528
  RDII Produced ...........         5.019         1.636
  RDII Ratio ..............         0.029
  
  
  *********************************************************
  NOTE: The summary statistics displayed in this report are
  based on results found at every computational time step,  
  not just on results from each reporting time step.
  *********************************************************
  
  ****************
  Analysis Options
  ****************
  Flow Units ............... CFS
  Process Models:
    Rainfall/Runoff ........ YES
    RDII ................... YES
    Snowmelt ............... NO
    Groundwater ............ NO
    Flow Routing ........... YES
    Ponding Allowed ........ NO
    Water Quality .......... NO
  Infiltration Method ...... GREEN_AMPT
  Flow Routing Method ...... DYNWAVE
  Surcharge Method ......... EXTRAN
  Starting Date ............ 01/01/1997 00:00:00
  Ending Date .............. 01/01/1997 02:00:00
  Antecedent Dry Days ...... 5.0
  Report Time Step ......... 00:05:00
  Wet Time Step ............ 00:00:30
  Dry Time Step ............ 00:01:00
  Routing Time Step ........ 30.00 sec
  Variable Time Step ....... YES
  Maximum Trials ........... 6
  Number of Threads ........ 1
  Head Tolerance ........... 0.000100 ft
  
  
  **************************        Volume         Depth
  Runoff Quantity Continuity     acre-feet        inches
  **************************     ---------       -------
  Initial Snow Cover .......         0.000         0.000
  Total Precipitation ......       314.224        12.782
  Evaporation Loss .........         0.162         0.007
  Infiltration Loss ........        47.521         1.933
  Surface Runoff ...........       261.815        10.650
  Snow Removed .............         0.000         0.000
  Final Snow Cover .........         0.000         0.000
  Final Storage ............         4.793         0.195
  Continuity Error (%) .....        -0.021
  
  
  **************************        Volume        Volume
  Flow Routing Continuity        acre-feet      10^6 gal
  **************************     ---------     ---------
  Dry Weather Inflow .......         0.058         0.019
  Wet Weather Inflow .......       261.205        85.117
  Groundwater Inflow .......         0.000         0.000
  RDII Inflow ..............         4.937         1.609
  External Inflow ..........         0.292         0.095
  External Outflow .........        73.568        23.973
  Flooding Loss ............        84.197        27.437
  Evaporation Loss .........         0.027         0.009
  Exfiltration Loss ........         3.981         1.297
  Initial Stored Volume ....         0.003         0.001
  Final Stored Volume ......        94.121        30.671
  Continuity Error (%) .....         3.978
  
  
  *************************
  Highest Continuity Errors
  *************************
  Node 166 (91.72%)
  Node 26 (63.38%)
  Node 989 (23.16%)
  Node 83 (21.69%)
  Node 348 (16.25%)
  
  
  ***************************
  Time-Step Critical Elements
  ***************************
  Link 3289 (59.32%)
  Link 1307 (4.69%)
  Link 1228 (3.70%)
  Link 1293 (2.84%)
  Link 2601OF (2.28%)
  
  
  ********************************
  Highest Flow Instability Indexes
  ********************************
  Link 166OF (102)
  Link CDT-141 (48)
  Link CDT-143 (47)
  Link CDT-137 (46)
  Link 257OF (40)
  
  
  *************************
  Routing Time Step Summary
  *************************
  Minimum Time Step           :     1.40 sec
  Average Time Step           :    10.24 sec
  Maximum Time Step           :    30.00 sec
  Percent in Steady State     :    -0.00
  Average Iterations per Step :     5.85
  Percent Not Converging      :    93.46
  
  
  ***************************
  Subcatchment Runoff Summary
  ***************************
  
  ------------------------------------------------------------------------------------------------------------------------------
                            Total      Total      Total      Total     Imperv       Perv      Total       Total     Peak  Runoff
                           Precip      Runon       Evap      Infil     Runoff     Runoff     Runoff      Runoff   Runoff   Coeff
  Subcatchment                 in         in         in         in         in         in         in    10^6 gal      CFS
  ------------------------------------------------------------------------------------------------------------------------------
  C10                       12.78       0.00       0.01       0.25      11.41       1.03      12.43        3.26   577.11   0.973
  C13                       12.78       0.00       0.01       0.27      11.29       1.14      12.43        0.61   115.05   0.973
  C15                       12.78       0.00       0.01       1.11       7.87       3.74      11.61        3.11   528.71   0.908
  C20                       12.78       0.00       0.01       1.63       5.59       5.53      11.12        2.30   376.56   0.870
  C25                       12.78       0.00       0.01       2.20       4.32       6.14      10.46        4.22   568.29   0.818
  C30                       12.78       0.00       0.01       2.35       3.30       7.11      10.41        1.90   271.56   0.814
  C33                       12.78       0.00       0.01       1.79       4.44       6.52      10.96        2.12   352.76   0.858
  C35                       12.78       0.00       0.01       2.01       5.08       5.53      10.61        3.88   527.76   0.830
  C45                       12.78       0.00       0.01       2.18       4.44       5.96      10.40        3.02   394.82   0.814
  C50                       12.78       0.00       0.01       1.81       5.84       4.98      10.81        5.60   788.16   0.846
  C55                       12.78       0.00       0.01       1.52       6.09       5.12      11.22        1.97   328.60   0.878
  C57                       12.78       0.00       0.01       1.64       6.09       5.01      11.10        3.86   602.05   0.868
  C60                       12.78       0.00       0.01       1.46       6.85       4.42      11.26        4.68   728.78   0.881
  C65                       12.78       0.00       0.01       1.04       7.75       3.94      11.69        1.98   365.29   0.914
  D10                       12.78       0.00       0.01       0.58      10.01       2.10      12.12        3.22   556.66   0.948
  D15                       12.78       0.00       0.01       1.35       7.11       4.27      11.38        1.85   302.84   0.890
  D20                       12.78       0.00       0.01       1.30       6.86       4.58      11.44        2.14   373.46   0.895
  D21                       12.78       0.00       0.01       2.63       2.67       7.38      10.05        4.08   512.30   0.786
  D22                       12.78       0.00       0.01       2.54       3.17       6.76       9.93        3.76   437.96   0.777
  D25                       12.78       0.00       0.01       2.53       3.05       7.08      10.13        1.57   197.86   0.793
  D30                       12.78       0.00       0.01       2.78       2.92       5.57       8.49        3.31   296.48   0.664
  D32                       12.78       0.00       0.01       1.59       6.60       4.53      11.13        1.00   151.14   0.870
  D35                       12.78       0.00       0.01       2.56       3.05       6.92       9.96        2.20   261.22   0.780
  D40                       12.78       0.00       0.01       2.44       3.43       6.77      10.20        2.83   359.36   0.798
  D45                       12.78       0.00       0.01       2.21       4.32       6.07      10.39        4.51   588.65   0.813
  D50                       12.78       0.00       0.01       1.93       4.95       5.86      10.82        2.46   368.16   0.846
  D55                       12.78       0.00       0.01       2.55       3.30       6.37       9.67        1.84   198.19   0.757
  D60                       12.78       0.00       0.01       2.54       3.17       6.77       9.95        3.42   398.69   0.778
  D65                       12.78       0.00       0.01       2.45       3.05       7.27      10.31        2.42   333.96   0.807
  D70                       12.78       0.00       0.01       1.76       5.59       5.40      10.99        2.17   333.76   0.860
  
  
  ******************
  Node Depth Summary
  ******************
  
  ---------------------------------------------------------------------------------
                                 Average  Maximum  Maximum  Time of Max    Reported
                                   Depth    Depth      HGL   Occurrence   Max Depth
  Node                 Type         Feet     Feet     Feet  days hr:min        Feet
  ---------------------------------------------------------------------------------
  1001                 JUNCTION     0.77     3.12   712.07     0  00:49        2.43
  105                  JUNCTION     0.18     0.75   679.54     0  00:50        0.75
  13                   JUNCTION     0.02     0.02   689.39     0  01:46        0.02
  136                  JUNCTION     7.52    11.17   676.30     0  00:50       11.17
  137                  JUNCTION     1.61     9.69   700.18     0  00:48        9.69
  140                  JUNCTION     5.10     8.43   674.71     0  00:55        8.39
  144                  JUNCTION     3.96     6.84   673.20     0  00:52        6.67
  147                  JUNCTION     0.27     0.52   687.06     0  01:00        0.52
  15                   JUNCTION     0.01     0.01   687.88     0  00:16        0.01
  150                  JUNCTION     0.49     1.57   683.36     0  00:51        1.54
  158                  JUNCTION     3.69     6.62   676.69     0  00:52        6.57
  166                  JUNCTION     4.88     7.32   677.39     0  00:52        7.31
  173                  JUNCTION     1.79     4.93   674.95     0  00:54        4.91
  179                  JUNCTION     1.97     5.01   673.81     0  00:51        5.01
  18                   JUNCTION     0.01     0.01   694.55     0  01:21        0.01
  183                  JUNCTION     0.79     6.04   676.99     0  00:49        4.65
  19                   JUNCTION     0.68     2.00   673.88     0  00:50        1.97
  200                  JUNCTION     0.54     1.42   690.54     0  00:53        1.39
  201                  JUNCTION     1.53     4.55   698.43     0  00:49        4.45
  205                  JUNCTION     5.49    10.09   674.86     0  00:51        9.62
  209                  JUNCTION     4.65    12.20   683.25     0  00:49        8.12
  232                  JUNCTION     3.88     6.48   677.89     0  00:49        6.48
  244                  JUNCTION     0.23     1.28   679.82     0  00:51        1.19
  25                   JUNCTION     0.00     0.02   673.87     0  00:51        0.01
  255                  JUNCTION     0.93     1.34   670.30     0  01:35        1.34
  257                  JUNCTION     7.38    10.31   680.84     0  00:48       10.00
  26                   JUNCTION     3.41     4.88   670.36     0  01:36        4.87
  260                  JUNCTION     3.04     5.00   677.44     0  00:51        5.00
  261                  JUNCTION     3.16     5.74   678.36     0  00:51        5.65
  267                  JUNCTION     0.28     1.12   697.88     0  00:50        1.12
  269                  JUNCTION     7.94    13.73   680.88     0  00:49       11.72
  276                  JUNCTION     0.27     1.55   682.00     0  00:50        1.38
  281                  JUNCTION     3.51     6.55   679.03     0  00:51        6.55
  285                  JUNCTION     0.32     1.70   683.16     0  00:50        1.69
  297                  JUNCTION     2.21     8.02   682.06     0  00:50        4.97
  304                  JUNCTION     1.74     7.33   682.15     0  00:50        4.20
  306                  JUNCTION     0.56     2.67   682.62     0  00:51        1.80
  31                   JUNCTION     0.17     0.72   672.38     0  00:50        0.72
  32                   JUNCTION     0.00     0.00   697.86     0  01:21        0.00
  323                  JUNCTION     2.50     7.10   685.74     0  00:50        7.10
  325                  JUNCTION     0.59     5.35   682.47     0  00:53        2.03
  33                   JUNCTION     0.02     0.02   693.92     0  02:00        0.02
  333                  JUNCTION     6.28     8.22   685.06     0  00:49        8.22
  348                  JUNCTION     2.81     4.99   687.66     0  00:49        4.99
  351                  JUNCTION     8.78    11.44   687.07     0  00:51       11.41
  371                  JUNCTION     0.35     1.27   698.33     0  00:50        1.26
  384                  JUNCTION     4.20     8.25   689.35     0  00:47        5.67
  387                  JUNCTION     3.51     7.58   701.53     0  00:50        7.57
  393                  JUNCTION     0.04     0.04   688.37     0  00:20        0.04
  4                    JUNCTION     0.01     0.01   691.31     0  01:40        0.01
  407                  JUNCTION     0.27     0.88   709.24     0  00:50        0.87
  46                   JUNCTION     3.68    15.05   702.32     0  00:48       15.05
  56                   JUNCTION     0.04     0.05   685.28     0  02:00        0.05
  64                   JUNCTION     2.70    13.82   702.27     0  00:48       13.64
  7                    JUNCTION     0.87     2.90   677.41     0  00:54        2.90
  74                   JUNCTION     2.96     4.38   670.35     0  01:35        4.37
  76                   JUNCTION     2.50    13.46   702.27     0  00:48       13.10
  77                   JUNCTION     2.17     3.01   670.47     0  01:35        3.01
  879                  JUNCTION     0.00     0.00   697.41     0  02:00        0.00
  882                  JUNCTION     0.13     0.27   692.75     0  00:57        0.26
  893                  JUNCTION     0.23     0.78   703.46     0  00:51        0.74
  894                  JUNCTION     0.23     0.79   706.06     0  00:50        0.78
  95                   JUNCTION     0.37     1.26   695.43     0  00:50        1.25
  956                  JUNCTION     0.30     0.77   695.14     0  00:51        0.72
  974                  JUNCTION     1.22     5.38   681.09     0  00:53        3.35
  982                  JUNCTION     1.26     5.88   681.72     0  00:53        3.27
  JCT-10               JUNCTION     2.06     4.98   675.00     0  00:54        4.97
  JCT-100              JUNCTION     2.16     4.00   720.75     0  01:09        4.00
  JCT-102              JUNCTION     1.74     2.98   718.98     0  01:09        2.98
  JCT-104              JUNCTION     2.81     5.74   720.68     0  01:49        5.74
  JCT-106              JUNCTION     3.27     6.52   719.99     0  01:49        6.52
  JCT-108              JUNCTION     2.17     3.94   716.83     0  01:24        3.94
  JCT-110              JUNCTION     0.33     1.04   711.81     0  01:45        0.94
  JCT-112              JUNCTION     0.71     2.55   722.04     0  01:49        2.55
  JCT-114              JUNCTION     1.70     4.00   723.65     0  01:23        4.00
  JCT-116              JUNCTION     0.40     1.10   719.92     0  01:48        1.10
  JCT-118              JUNCTION     2.14     3.99   718.83     0  01:11        3.99
  JCT-12               JUNCTION     2.33     5.73   674.91     0  00:59        3.89
  JCT-120              JUNCTION     2.99     5.77   719.17     0  01:48        5.77
  JCT-122              JUNCTION     2.91     6.02   718.32     0  01:48        6.01
  JCT-124              JUNCTION     2.23     4.04   712.49     0  01:10        4.04
  JCT-126              JUNCTION     1.86     3.38   706.67     0  01:10        3.31
  JCT-128              JUNCTION     0.14     0.20   699.82     0  01:23        0.20
  JCT-130              JUNCTION     0.15     0.25   715.90     0  01:50        0.25
  JCT-132              JUNCTION     2.00     4.00   719.44     0  01:13        4.00
  JCT-134              JUNCTION     0.02     0.03   712.03     0  01:14        0.03
  JCT-136              JUNCTION     0.01     0.01   707.57     0  00:21        0.01
  JCT-138              JUNCTION    11.56    31.63   711.63     0  01:41       26.24
  JCT-14               JUNCTION     2.51     5.10   673.44     0  01:03        4.80
  JCT-140              JUNCTION    10.12    30.05   712.05     0  01:41       23.75
  JCT-142              JUNCTION     8.22    24.04   709.04     0  01:41       18.85
  JCT-144              JUNCTION     7.75    17.23   702.73     0  01:18       17.23
  JCT-146              JUNCTION    17.91    22.41   708.41     0  00:50       22.41
  JCT-148              JUNCTION    34.08    41.48   709.18     0  00:50       41.48
  JCT-150              JUNCTION    30.03    38.51   708.51     0  00:50       37.20
  JCT-152              JUNCTION    23.95    32.78   707.78     0  00:50       30.48
  JCT-154              JUNCTION     2.09     3.69   692.69     0  01:07        3.62
  JCT-156              JUNCTION     8.69    28.17   708.65     0  00:57       13.05
  JCT-16               JUNCTION     0.14     0.23   697.11     0  01:55        0.23
  JCT-160              JUNCTION     0.36     1.09   672.11     0  01:03        1.02
  JCT-162              JUNCTION     0.97     1.86   672.03     0  01:01        1.83
  JCT-164              JUNCTION     1.55     2.93   670.51     0  00:58        2.91
  JCT-166              JUNCTION     1.46     2.93   669.88     0  01:06        2.92
  JCT-168              JUNCTION     1.66     2.39   667.26     0  01:05        2.39
  JCT-170              JUNCTION     0.88     1.39   665.35     0  01:06        1.38
  JCT-174              JUNCTION     0.47     1.28   694.55     0  00:55        1.28
  JCT-176              JUNCTION     0.38     1.09   695.98     0  00:55        1.09
  JCT-178              JUNCTION     0.38     1.09   699.26     0  00:53        1.09
  JCT-18               JUNCTION     1.44     4.00   693.97     0  01:29        4.00
  JCT-180              JUNCTION     0.52     1.50   701.75     0  00:50        1.50
  JCT-182              JUNCTION     0.41     1.33   703.82     0  00:51        1.30
  JCT-184              JUNCTION     0.46     1.49   704.49     0  00:51        1.48
  JCT-20               JUNCTION     1.52     4.00   686.57     0  01:27        4.00
  JCT-22               JUNCTION     2.65     8.82   677.93     0  02:00        8.82
  JCT-24               JUNCTION     0.59     3.45   708.28     0  01:54        3.45
  JCT-26               JUNCTION     0.70     3.89   703.51     0  01:47        3.89
  JCT-28               JUNCTION     1.54     4.00   689.15     0  01:27        4.00
  JCT-30               JUNCTION     2.89     7.58   679.19     0  02:00        7.58
  JCT-32               JUNCTION     1.24     4.72   714.90     0  01:44        4.72
  JCT-34               JUNCTION     1.24     4.01   707.13     0  01:35        4.01
  JCT-36               JUNCTION     1.73     4.16   691.55     0  01:23        4.16
  JCT-38               JUNCTION     2.54     6.17   679.28     0  01:45        6.17
  JCT-40               JUNCTION     0.24     0.78   704.22     0  01:46        0.69
  JCT-42               JUNCTION     1.77     4.00   703.39     0  01:27        4.00
  JCT-44               JUNCTION     1.35     4.18   701.34     0  01:54        4.18
  JCT-46               JUNCTION     2.25     4.02   685.34     0  01:10        4.02
  JCT-48               JUNCTION     2.18     4.00   678.61     0  01:16        4.00
  JCT-50               JUNCTION     1.61     4.17   728.45     0  01:28        4.17
  JCT-52               JUNCTION     2.82     7.05   728.05     0  01:48        7.05
  JCT-54               JUNCTION     0.20     0.33   718.00     0  01:49        0.33
  JCT-56               JUNCTION     2.43     4.00   692.05     0  01:05        4.00
  JCT-58               JUNCTION     2.85     5.17   691.22     0  01:48        5.17
  JCT-60               JUNCTION     0.44     0.60   684.81     0  01:58        0.60
  JCT-62               JUNCTION     0.13     0.22   725.63     0  01:50        0.22
  JCT-64               JUNCTION     0.17     0.30   711.63     0  01:50        0.30
  JCT-66               JUNCTION     1.72     4.00   701.57     0  01:23        4.00
  JCT-68               JUNCTION     0.38     0.49   692.49     0  02:00        0.49
  JCT-70               JUNCTION     1.61     4.00   721.84     0  01:33        4.00
  JCT-72               JUNCTION     1.85     4.00   714.40     0  01:21        4.00
  JCT-74               JUNCTION     3.27     4.05   703.86     0  00:47        4.05
  JCT-76               JUNCTION     3.46     4.00   701.16     0  00:43        4.00
  JCT-78               JUNCTION     2.58     4.14   716.33     0  01:04        4.14
  JCT-80               JUNCTION     2.51     3.92   714.28     0  01:03        3.92
  JCT-82               JUNCTION     2.49     4.00   719.11     0  01:04        4.00
  JCT-84               JUNCTION     2.32     3.68   717.72     0  01:04        3.68
  JCT-86               JUNCTION     1.74     4.31   729.93     0  01:38        4.31
  JCT-88               JUNCTION     2.09     4.26   726.26     0  01:17        4.26
  JCT-90               JUNCTION     2.06     4.08   722.97     0  01:15        4.08
  JCT-92               JUNCTION     2.08     4.00   719.36     0  01:14        4.00
  JCT-94               JUNCTION     2.31     5.42   716.42     0  01:48        5.41
  JCT-96               JUNCTION     0.24     0.37   702.37     0  01:44        0.37
  JCT-98               JUNCTION     0.46     1.37   722.17     0  01:48        1.37
  OFALL-10             OUTFALL      0.44     0.60   680.60     0  01:58        0.60
  OFALL-12             OUTFALL      0.72     1.18   661.18     0  01:06        1.17
  VIADUCT1             OUTFALL      0.20     0.76   696.76     0  00:50        0.75
  VIADUCT2             OUTFALL      0.13     0.38   692.38     0  00:51        0.35
  1114                 STORAGE      1.97     2.44   686.08     0  00:49        2.44
  1115                 STORAGE      6.58     8.18   690.68     0  01:26        8.18
  117                  STORAGE      3.70     6.74   673.54     0  00:52        6.62
  163                  STORAGE      2.54     5.79   673.92     0  00:53        5.56
  17                   STORAGE      0.57     1.55   684.49     0  00:52        1.51
  187                  STORAGE      3.57     5.80   677.38     0  00:52        5.80
  229                  STORAGE      2.01     4.47   678.48     0  00:57        4.38
  421                  STORAGE      0.67     2.12   707.67     0  00:50        2.11
  83                   STORAGE      7.02     9.84   670.34     0  01:34        9.84
  989                  STORAGE      1.66     3.29   687.32     0  00:50        3.14
  STOR-10              STORAGE      0.50     0.68   680.68     0  01:43        0.68
  STOR-12              STORAGE      0.41     0.63   685.63     0  01:53        0.62
  STOR-14              STORAGE     10.59    15.94   673.44     0  01:03       15.73
  STOR-16              STORAGE      8.05    21.35   674.18     0  02:00       21.35
  
  
  *******************
  Node Inflow Summary
  *******************
  
  -------------------------------------------------------------------------------------------------
                                  Maximum  Maximum                  Lateral       Total        Flow
                                  Lateral    Total  Time of Max      Inflow      Inflow     Balance
                                   Inflow   Inflow   Occurrence      Volume      Volume       Error
  Node                 Type           CFS      CFS  days hr:min    10^6 gal    10^6 gal     Percent
  -------------------------------------------------------------------------------------------------
  1001                 JUNCTION    394.82   394.82     0  00:50        3.01        3.01       0.169
  105                  JUNCTION    333.76   333.77     0  00:50        2.17        2.17      -0.028
  13                   JUNCTION      0.00     0.00     0  01:40   9.54e-005    0.000165       4.224
  136                  JUNCTION    556.66  1078.88     0  00:52        3.21        21.6       2.918
  137                  JUNCTION      0.00    27.71     0  00:48    0.000151      0.0843      -0.639
  140                  JUNCTION      0.00   816.39     0  01:09           0          20       2.513
  144                  JUNCTION      0.00   761.06     0  00:53           0        10.1       1.559
  147                  JUNCTION      0.00     4.46     0  00:49    0.000167      0.0589       0.262
  15                   JUNCTION      0.00     0.01     0  01:47    0.000177    0.000335       1.496
  150                  JUNCTION      0.01   583.96     0  00:50    0.000266         4.5      -0.195
  158                  JUNCTION      0.00   695.11     0  01:15           0        16.3       0.238
  166                  JUNCTION      0.00    76.70     0  00:43           0      0.0911    1107.010
  173                  JUNCTION      0.00    97.92     0  01:04           0        1.52       0.444
  179                  JUNCTION      0.00   629.15     0  00:50           0        7.53       2.222
  18                   JUNCTION      0.00     0.00     0  02:00   4.06e-005   7.76e-005       4.345
  183                  JUNCTION    328.60   918.86     0  00:50        1.96        5.81       0.117
  19                   JUNCTION    373.46   982.63     0  00:50        2.14        8.69       0.378
  200                  JUNCTION    398.70   566.35     0  00:51        3.41        5.23       0.862
  201                  JUNCTION    296.48   296.48     0  00:50         3.3         3.3       2.205
  205                  JUNCTION      0.00   652.74     0  00:50           0        4.44       7.641
  209                  JUNCTION    333.96  1210.67     0  00:49        2.42        8.05      12.754
  232                  JUNCTION    528.71  1086.59     0  00:50         3.1        6.98       1.500
  244                  JUNCTION      0.00   699.30     0  00:50           0        3.51       0.011
  25                   JUNCTION      0.00     5.59     0  00:50           0      0.0021       3.370
  255                  JUNCTION      0.00   760.92     0  00:53           0        14.4       2.136
  257                  JUNCTION    365.29   365.29     0  00:49        1.98        1.98       6.187
  26                   JUNCTION      0.00   309.65     0  00:49    0.000195        2.61     173.077
  260                  JUNCTION      0.00   668.70     0  00:51           0         9.6       0.637
  261                  JUNCTION      0.00   820.73     0  00:50           0        9.57       0.384
  267                  JUNCTION    602.05   602.05     0  00:49        3.85        3.85      -0.033
  269                  JUNCTION    359.36  1189.19     0  00:52        2.82        10.2       7.988
  276                  JUNCTION      0.00   632.73     0  00:50           0        3.01       0.078
  281                  JUNCTION    376.56  1361.33     0  00:53        2.29        12.1       1.997
  285                  JUNCTION      0.00  1006.34     0  00:50   6.02e-005        4.67       0.060
  297                  JUNCTION      0.00   391.98     0  00:50   4.71e-005       0.637      -2.559
  304                  JUNCTION      0.00    58.92     0  00:50   1.18e-005       0.169       0.443
  306                  JUNCTION      0.00   995.41     0  00:51           0        7.88       0.039
  31                   JUNCTION    302.84   302.84     0  00:49        1.85        1.85      -0.087
  32                   JUNCTION      0.00     0.00     0  01:00   1.51e-005   1.51e-005       1.825
  323                  JUNCTION    728.78  1884.35     0  00:50        4.67        12.8       2.006
  325                  JUNCTION      0.00   290.23     0  00:52   2.06e-005        1.37       0.866
  33                   JUNCTION      0.01     0.01     0  01:00    0.000282    0.000282       4.234
  333                  JUNCTION      0.00    60.25     0  00:53    0.000166        1.32       1.493
  348                  JUNCTION    261.23  1031.30     0  00:48         2.2        4.53      19.403
  351                  JUNCTION      0.00   822.55     0  00:48    0.000149        5.16      15.791
  371                  JUNCTION      0.00  1165.97     0  00:50    6.6e-005        8.12       0.066
  384                  JUNCTION    271.56   599.88     0  00:51        1.89        4.82      12.013
  387                  JUNCTION    788.16  1166.95     0  00:50        5.59        8.59       5.859
  393                  JUNCTION      0.01     0.01     0  01:00    0.000659    0.000659       1.382
  4                    JUNCTION      0.00     0.00     0  01:30           0   7.37e-005       5.108
  407                  JUNCTION      0.00   395.35     0  00:50     0.00013        3.01       0.159
  46                   JUNCTION    198.19   198.19     0  00:50        1.84        1.86       0.138
  56                   JUNCTION      0.01     0.01     0  02:00    0.000439    0.000569       7.247
  64                   JUNCTION      0.00    28.28     0  00:48   9.52e-005       0.112       0.246
  7                    JUNCTION    512.30  1202.72     0  00:52        4.07          11       0.234
  74                   JUNCTION      0.00  1261.08     0  00:54   6.14e-005        17.5      12.957
  76                   JUNCTION      0.00    27.52     0  00:48    0.000129       0.097      -0.111
  77                   JUNCTION      0.00  1124.23     0  00:51           0        16.9       1.328
  879                  JUNCTION      0.00     0.00     0  01:21   2.33e-005   3.81e-005       1.881
  882                  JUNCTION      0.00    16.85     0  00:53    0.000111       0.236       4.468
  893                  JUNCTION      0.00   330.80     0  00:50           0        2.48       0.098
  894                  JUNCTION      0.00   523.30     0  00:50           0        3.87       0.045
  95                   JUNCTION    588.66   588.66     0  00:50         4.5         4.5       0.011
  956                  JUNCTION    151.18   439.12     0  00:50           1        4.04       0.956
  974                  JUNCTION      0.00   581.95     0  00:51   7.76e-005        2.03       1.711
  982                  JUNCTION      0.00   387.14     0  00:51   1.74e-005        1.59       1.691
  JCT-10               JUNCTION    115.05   175.96     0  00:49       0.607        2.07       0.358
  JCT-100              JUNCTION      0.35     0.69     0  01:49     0.00685      0.0135       3.929
  JCT-102              JUNCTION      0.42     1.23     0  01:49     0.00837      0.0238       2.369
  JCT-104              JUNCTION      0.24     0.61     0  01:49     0.00478      0.0131       6.873
  JCT-106              JUNCTION      0.28     0.51     0  01:49     0.00548      0.0125       5.010
  JCT-108              JUNCTION      0.45     0.97     0  01:49     0.00883      0.0207       2.859
  JCT-110              JUNCTION      0.21     0.93     0  01:44     0.00425      0.0213       2.610
  JCT-112              JUNCTION      0.37     0.37     0  01:49     0.00717     0.00717       3.332
  JCT-114              JUNCTION      0.80     0.80     0  01:59      0.0131      0.0131       3.689
  JCT-116              JUNCTION      0.31     0.31     0  01:49     0.00612     0.00612       4.390
  JCT-118              JUNCTION      0.53     1.00     0  01:49      0.0104      0.0183       3.189
  JCT-12               JUNCTION      0.00    44.51     0  00:59           0       0.546       0.531
  JCT-120              JUNCTION      0.29     0.51     0  01:13      0.0057      0.0122       7.155
  JCT-122              JUNCTION      0.40     0.69     0  01:48     0.00802      0.0173       3.088
  JCT-124              JUNCTION      0.36     1.44     0  01:49     0.00696      0.0311       3.000
  JCT-126              JUNCTION      0.00     0.68     0  01:33   3.18e-005       0.018       3.245
  JCT-128              JUNCTION      0.00     0.68     0  01:33           0      0.0174       1.346
  JCT-130              JUNCTION      0.39     0.39     0  01:49     0.00757     0.00757       1.868
  JCT-132              JUNCTION      0.28     0.32     0  01:12     0.00551      0.0056       4.314
  JCT-134              JUNCTION      0.00     0.00     0  01:00    0.000113    0.000113       4.420
  JCT-136              JUNCTION      0.00     0.00     0  01:19           0    0.000107       3.214
  JCT-138              JUNCTION      0.00     3.51     0  01:03    0.000111       0.057       2.275
  JCT-14               JUNCTION      0.00    45.44     0  00:59           0       0.543       0.328
  JCT-140              JUNCTION      0.00     5.45     0  01:07     0.00014      0.0563       7.178
  JCT-142              JUNCTION      0.00     7.58     0  01:16    0.000131      0.0687      13.279
  JCT-144              JUNCTION      0.00     6.34     0  01:58   5.07e-005      0.0602       9.631
  JCT-146              JUNCTION      0.00    11.95     0  00:49   1.86e-005       0.109       7.484
  JCT-148              JUNCTION      0.00    17.50     0  00:43           0        0.42       1.982
  JCT-150              JUNCTION      0.00    16.88     0  00:46           0       0.282       1.768
  JCT-152              JUNCTION      0.00    13.31     0  00:49           0       0.277       6.040
  JCT-154              JUNCTION      0.00    12.01     0  01:04   4.74e-005       0.338       7.144
  JCT-156              JUNCTION      0.00     3.94     0  00:57   1.63e-005      0.0847      10.032
  JCT-16               JUNCTION      0.34     0.34     0  01:54     0.00666     0.00666       1.698
  JCT-160              JUNCTION      1.77    43.88     0  00:58      0.0951       0.237      10.130
  JCT-162              JUNCTION      0.00   441.67     0  00:58           0        4.63       5.928
  JCT-164              JUNCTION      0.00  1149.71     0  00:51           0        12.9       3.547
  JCT-166              JUNCTION      0.00  1121.76     0  00:59           0        12.4       7.069
  JCT-168              JUNCTION      0.00  1024.72     0  01:04           0        22.9       4.012
  JCT-170              JUNCTION      0.00  1023.34     0  01:05           0          22       1.880
  JCT-174              JUNCTION      0.00   169.87     0  00:55           0        1.51       0.333
  JCT-176              JUNCTION      0.00   169.95     0  00:54           0        1.52       0.213
  JCT-178              JUNCTION      0.00   169.80     0  00:53           0        1.52       0.327
  JCT-18               JUNCTION      0.79     1.12     0  01:55       0.015      0.0216       2.553
  JCT-180              JUNCTION      0.00   195.13     0  00:51           0        1.56       0.251
  JCT-182              JUNCTION      0.00   196.86     0  00:50           0        1.56       0.019
  JCT-184              JUNCTION    197.86   197.86     0  00:50        1.56        1.56       0.005
  JCT-20               JUNCTION      0.71     1.51     0  01:54      0.0136      0.0316       1.873
  JCT-22               JUNCTION      0.59     5.47     0  01:27      0.0115        0.11       2.494
  JCT-24               JUNCTION      0.63     0.63     0  01:54      0.0122      0.0122       2.311
  JCT-26               JUNCTION      0.55     1.18     0  01:54      0.0108      0.0227       2.476
  JCT-28               JUNCTION      0.55     1.68     0  01:54       0.011      0.0329       1.759
  JCT-30               JUNCTION      0.57     3.97     0  01:27      0.0112      0.0781       3.927
  JCT-32               JUNCTION      0.91     0.91     0  01:54      0.0176      0.0176       1.399
  JCT-34               JUNCTION      0.56     1.41     0  01:54       0.011       0.028       2.042
  JCT-36               JUNCTION      0.57     1.67     0  01:54      0.0113      0.0359       1.623
  JCT-38               JUNCTION      0.52     2.50     0  01:26     0.00996      0.0517       4.595
  JCT-40               JUNCTION      0.25     0.25     0  01:54     0.00485     0.00485       5.699
  JCT-42               JUNCTION      0.76     1.01     0  01:54      0.0146      0.0192       3.356
  JCT-44               JUNCTION      0.74     1.15     0  01:26      0.0146      0.0267       2.166
  JCT-46               JUNCTION      0.81     1.95     0  01:54      0.0154      0.0415       1.463
  JCT-48               JUNCTION      0.65     1.92     0  01:54      0.0124      0.0383       2.432
  JCT-50               JUNCTION      0.48     0.48     0  01:49     0.00931     0.00931       2.798
  JCT-52               JUNCTION      0.75     0.94     0  01:49      0.0146       0.021       2.511
  JCT-54               JUNCTION      0.37     1.32     0  01:49      0.0074      0.0278       1.590
  JCT-56               JUNCTION      0.39     1.70     0  01:49     0.00765      0.0351       2.094
  JCT-58               JUNCTION      0.36     0.64     0  01:49     0.00714      0.0172       3.748
  JCT-60               JUNCTION      0.00    13.82     0  01:58           0       0.371       0.899
  JCT-62               JUNCTION      0.37     0.37     0  01:49     0.00725     0.00725       2.391
  JCT-64               JUNCTION      0.39     0.76     0  01:50     0.00778      0.0149       2.655
  JCT-66               JUNCTION      0.38     1.14     0  01:50     0.00759      0.0221       3.433
  JCT-68               JUNCTION      0.00     1.58     0  01:23   9.51e-005      0.0475       2.291
  JCT-70               JUNCTION      0.80     1.12     0  01:59      0.0132      0.0213       3.284
  JCT-72               JUNCTION      0.80     1.63     0  01:59      0.0131       0.032       1.709
  JCT-74               JUNCTION      0.80     2.71     0  01:59      0.0131      0.0649       1.302
  JCT-76               JUNCTION     63.97    64.48     0  01:59        1.04        1.05       0.229
  JCT-78               JUNCTION      1.55     1.55     0  01:59      0.0252      0.0252       1.181
  JCT-80               JUNCTION      1.19     2.13     0  01:59      0.0193      0.0463       1.975
  JCT-82               JUNCTION      1.48     1.48     0  01:59      0.0241      0.0241       1.185
  JCT-84               JUNCTION      1.61     1.96     0  01:59      0.0262      0.0362       1.697
  JCT-86               JUNCTION      0.69     0.69     0  01:49      0.0135      0.0135       1.643
  JCT-88               JUNCTION      0.36     0.97     0  01:49       0.007      0.0198       2.885
  JCT-90               JUNCTION      0.35     0.85     0  01:49     0.00682      0.0194       3.264
  JCT-92               JUNCTION      0.44     0.99     0  01:49     0.00878      0.0228       2.874
  JCT-94               JUNCTION      0.50     0.97     0  01:49     0.00985      0.0242       3.815
  JCT-96               JUNCTION      0.74     2.58     0  01:44      0.0152      0.0593       1.689
  JCT-98               JUNCTION      0.34     0.34     0  01:49     0.00687     0.00687       4.048
  OFALL-10             OUTFALL       0.00    13.82     0  01:58           0       0.368       0.000
  OFALL-12             OUTFALL       0.00  1018.28     0  01:06           0        21.6       0.000
  VIADUCT1             OUTFALL       0.00   192.13     0  00:50           0        1.39       0.000
  VIADUCT2             OUTFALL       0.00    66.80     0  00:51           0       0.604       0.000
  1114                 STORAGE     568.29  1785.19     0  00:52        4.21        10.7       1.920
  1115                 STORAGE     352.76   352.76     0  00:50        2.12        2.12       0.333
  117                  STORAGE     577.11  1488.70     0  00:50        3.25          24       1.969
  163                  STORAGE       0.00  1089.06     0  00:50           0        10.7       2.583
  17                   STORAGE     437.96   710.54     0  00:52        3.76        6.93       0.090
  187                  STORAGE     368.16  1930.87     0  00:57        2.46        24.8       1.158
  229                  STORAGE       0.00  1753.30     0  00:51           0        13.5       1.169
  421                  STORAGE     527.76   527.76     0  00:50        3.87        3.87       0.026
  83                   STORAGE       0.00  1877.31     0  00:56           0        22.5      27.698
  989                  STORAGE       0.00   415.56     0  00:49           0       0.404      30.133
  STOR-10              STORAGE       0.00     2.58     0  01:44           0      0.0583       1.099
  STOR-12              STORAGE       0.00     0.68     0  01:23           0      0.0172       3.061
  STOR-14              STORAGE       0.00    43.53     0  00:55           0       0.541       8.304
  STOR-16              STORAGE       0.00     5.12     0  01:27           0       0.108      17.298
  
  
  **********************
  Node Surcharge Summary
  **********************
  
  Surcharging occurs when water rises above the top of the highest conduit.
  ---------------------------------------------------------------------
                                               Max. Height   Min. Depth
                                   Hours       Above Crown    Below Rim
  Node                 Type      Surcharged           Feet         Feet
  ---------------------------------------------------------------------
  1001                 JUNCTION        0.08          1.124        1.275
  136                  JUNCTION        1.26          7.920        0.000
  137                  JUNCTION        0.25          7.690        0.000
  144                  JUNCTION        1.30          4.844        1.406
  158                  JUNCTION        0.88          3.372        0.378
  166                  JUNCTION        1.28          5.316        1.114
  179                  JUNCTION        0.35          3.010        0.000
  183                  JUNCTION        0.18          4.040        4.009
  201                  JUNCTION        0.29          2.550        4.224
  205                  JUNCTION        1.23          7.087        3.083
  209                  JUNCTION        0.81          8.200        0.000
  232                  JUNCTION        0.78          2.732        0.000
  257                  JUNCTION        1.33          8.308        5.212
  269                  JUNCTION        1.22          9.730        0.000
  281                  JUNCTION        0.71          2.802        0.000
  297                  JUNCTION        0.62          5.265        0.000
  304                  JUNCTION        0.49          4.581        0.000
  306                  JUNCTION        0.03          0.671        3.280
  323                  JUNCTION        0.25          3.102        9.547
  325                  JUNCTION        0.01          2.601        0.903
  333                  JUNCTION        1.26          5.474        0.000
  348                  JUNCTION        1.19          2.490        0.000
  351                  JUNCTION        1.23          8.440        0.440
  384                  JUNCTION        1.21          5.245        1.949
  387                  JUNCTION        0.34          3.576        6.274
  46                   JUNCTION        0.31         11.053        0.000
  64                   JUNCTION        0.34         11.320        0.000
  76                   JUNCTION        0.31         10.960        0.000
  974                  JUNCTION        0.17          2.628        1.525
  982                  JUNCTION        0.16          3.127        1.623
  JCT-100              JUNCTION        0.85          3.500        0.000
  JCT-102              JUNCTION        0.87          2.484        0.000
  JCT-104              JUNCTION        0.88          5.243        0.086
  JCT-106              JUNCTION        0.93          6.024        0.483
  JCT-108              JUNCTION        0.88          3.442        0.000
  JCT-110              JUNCTION        0.24          0.545        2.779
  JCT-112              JUNCTION        0.49          2.050        1.531
  JCT-114              JUNCTION        0.66          3.500        0.000
  JCT-116              JUNCTION        0.48          0.604        2.896
  JCT-118              JUNCTION        0.80          3.489        0.000
  JCT-12               JUNCTION        0.37          2.731        7.688
  JCT-120              JUNCTION        0.86          5.271        0.400
  JCT-122              JUNCTION        0.82          5.516        0.664
  JCT-124              JUNCTION        0.83          3.539        0.000
  JCT-126              JUNCTION        0.84          2.882        0.661
  JCT-132              JUNCTION        0.78          3.500        0.000
  JCT-138              JUNCTION        0.94         30.125        0.000
  JCT-14               JUNCTION        0.70          2.100       23.607
  JCT-140              JUNCTION        0.85         28.545        0.441
  JCT-142              JUNCTION        0.71         22.544        0.912
  JCT-144              JUNCTION        0.70         15.729        0.000
  JCT-146              JUNCTION        1.17         20.913        0.000
  JCT-148              JUNCTION        1.25         39.983        0.000
  JCT-150              JUNCTION        1.23         37.012        7.736
  JCT-152              JUNCTION        1.18         31.284        1.853
  JCT-154              JUNCTION        0.88          2.186        3.305
  JCT-156              JUNCTION        1.05         26.671        0.000
  JCT-18               JUNCTION        0.52          3.500        0.000
  JCT-180              JUNCTION        0.07          0.000        0.000
  JCT-20               JUNCTION        0.54          3.500        0.000
  JCT-22               JUNCTION        0.54          7.816        5.503
  JCT-24               JUNCTION        0.22          2.951        0.549
  JCT-26               JUNCTION        0.25          3.393        0.000
  JCT-28               JUNCTION        0.55          3.500        0.000
  JCT-30               JUNCTION        0.75          6.576        2.685
  JCT-32               JUNCTION        0.41          4.219        0.000
  JCT-34               JUNCTION        0.44          3.512        0.000
  JCT-36               JUNCTION        0.61          3.659        0.000
  JCT-38               JUNCTION        0.72          5.169        0.000
  JCT-40               JUNCTION        0.23          0.275        3.225
  JCT-42               JUNCTION        0.72          3.500        0.000
  JCT-44               JUNCTION        0.55          3.680        5.819
  JCT-46               JUNCTION        0.83          3.523        0.000
  JCT-48               JUNCTION        0.86          3.333        0.000
  JCT-50               JUNCTION        0.59          3.670        0.000
  JCT-52               JUNCTION        0.72          6.549        6.341
  JCT-56               JUNCTION        0.91          3.500        0.000
  JCT-58               JUNCTION        0.93          4.667        0.833
  JCT-66               JUNCTION        0.64          3.500        0.000
  JCT-70               JUNCTION        0.62          3.500        0.000
  JCT-72               JUNCTION        0.69          3.500        0.000
  JCT-74               JUNCTION        1.21          3.550        0.000
  JCT-76               JUNCTION        1.28          3.495        0.000
  JCT-78               JUNCTION        0.93          3.645        0.000
  JCT-80               JUNCTION        0.95          3.425        0.000
  JCT-82               JUNCTION        0.93          3.500        0.000
  JCT-84               JUNCTION        0.94          3.184        0.000
  JCT-86               JUNCTION        0.70          3.807        0.000
  JCT-88               JUNCTION        0.74          3.760        0.000
  JCT-90               JUNCTION        0.76          3.581        0.000
  JCT-92               JUNCTION        0.80          3.500        0.000
  JCT-94               JUNCTION        0.76          4.918        3.550
  JCT-98               JUNCTION        0.49          0.873        2.740
  
  
  *********************
  Node Flooding Summary
  *********************
  
  Flooding refers to all water that overflows a node, whether it ponds or not.
  --------------------------------------------------------------------------
                                                             Total   Maximum
                                 Maximum   Time of Max       Flood    Ponded
                        Hours       Rate    Occurrence      Volume     Depth
  Node                 Flooded       CFS   days hr:min    10^6 gal      Feet
  --------------------------------------------------------------------------
  136                     0.15    428.77      0  00:52       0.948     0.000
  137                     0.14     20.08      0  00:48       0.009     0.000
  179                     0.06    284.65      0  00:53       0.275     0.000
  209                     0.01    890.51      0  00:49       0.072     0.000
  232                     0.18    486.31      0  00:52       1.290     0.000
  260                     0.46    556.26      0  00:58       4.435     0.000
  269                     0.01    363.27      0  00:49       0.033     0.000
  281                     0.13    673.46      0  00:53       0.896     0.000
  297                     0.01    218.36      0  00:50       0.014     0.000
  304                     0.01     35.32      0  00:50       0.002     0.000
  333                     0.05      2.50      0  00:51       0.002     0.000
  348                     0.04    970.98      0  00:49       0.450     0.000
  46                      0.13     47.68      0  00:50       0.102     0.000
  64                      0.01      4.43      0  00:48       0.001     0.000
  76                      0.01      2.45      0  00:48       0.000     0.000
  JCT-100                 0.56      0.26      0  01:49       0.003     0.000
  JCT-102                 0.85      1.23      0  01:49       0.022     0.000
  JCT-108                 0.60      0.31      0  01:49       0.003     0.000
  JCT-114                 0.61      0.49      0  01:59       0.005     0.000
  JCT-118                 0.79      1.00      0  01:49       0.016     0.000
  JCT-124                 0.82      0.76      0  01:49       0.012     0.000
  JCT-132                 0.48      0.12      0  01:49       0.001     0.000
  JCT-138                 0.01      0.79      0  01:41       0.000     0.000
  JCT-144                 0.66      5.37      0  01:44       0.055     0.000
  JCT-146                 1.16      5.79      0  00:50       0.101     0.000
  JCT-148                 1.08      0.97      0  01:10       0.021     0.000
  JCT-18                  0.51      0.33      0  01:55       0.003     0.000
  JCT-180                 0.07     27.47      0  00:50       0.036     0.000
  JCT-20                  0.54      0.66      0  01:58       0.007     0.000
  JCT-26                  0.21      0.06      0  01:54       0.000     0.000
  JCT-28                  0.55      0.77      0  01:55       0.008     0.000
  JCT-32                  0.26      0.05      0  01:54       0.000     0.000
  JCT-34                  0.41      0.31      0  01:54       0.003     0.000
  JCT-36                  0.61      0.62      0  01:55       0.008     0.000
  JCT-38                  0.25      0.50      0  02:00       0.002     0.000
  JCT-42                  0.55      0.61      0  01:55       0.006     0.000
  JCT-46                  0.83      1.19      0  01:54       0.020     0.000
  JCT-48                  0.72      1.92      0  01:54       0.023     0.000
  JCT-50                  0.52      0.28      0  01:49       0.003     0.000
  JCT-56                  0.91      1.42      0  01:49       0.024     0.000
  JCT-66                  0.60      0.43      0  01:50       0.005     0.000
  JCT-70                  0.43      0.29      0  02:00       0.002     0.000
  JCT-72                  0.65      0.65      0  01:59       0.007     0.000
  JCT-74                  1.11      2.20      0  01:59       0.048     0.000
  JCT-76                  1.27     63.62      0  01:59       1.020     0.000
  JCT-78                  0.87      1.13      0  01:59       0.013     0.000
  JCT-80                  0.93      1.20      0  01:59       0.018     0.000
  JCT-82                  0.92      1.13      0  01:59       0.014     0.000
  JCT-84                  0.93      1.44      0  01:59       0.020     0.000
  JCT-86                  0.36      0.08      0  01:49       0.000     0.000
  JCT-88                  0.70      0.47      0  01:49       0.007     0.000
  JCT-90                  0.74      0.30      0  01:49       0.005     0.000
  JCT-92                  0.75      0.53      0  01:49       0.008     0.000
  1114                    0.84   1775.19      0  00:52       8.651     0.000
  187                     0.31   1502.20      0  00:57       8.024     0.000
  83                      0.25    170.19      0  01:36       0.690     0.000
  
  
  **********************
  Storage Volume Summary
  **********************
  
  --------------------------------------------------------------------------------------------------
                         Average     Avg  Evap Exfil       Maximum     Max    Time of Max    Maximum
                          Volume    Pcnt  Pcnt  Pcnt        Volume    Pcnt     Occurrence    Outflow
  Storage Unit          1000 ft3    Full  Loss  Loss      1000 ft3    Full    days hr:min        CFS
  --------------------------------------------------------------------------------------------------
  1114                     0.915      78     0     0         1.169     100       0  00:49     772.37
  1115                   209.764      40     0     0       276.830      52       0  01:26       1.93
  117                      7.545       0     0     0        38.368       0       0  00:52    1305.40
  163                      3.839       0     0     0        54.080       0       0  00:53     853.23
  17                       0.025       6     0     0         0.068      16       0  00:52     707.59
  187                     55.176      39     0     0       140.458     100       0  00:52     713.22
  229                     51.815       0     0     0       214.465       0       0  00:57    1274.83
  421                      0.029       0     0     0         0.093       0       0  00:50     523.30
  83                     996.164      64     0     5      1557.120     100       0  01:34     351.81
  989                      0.203       1     0     0         7.823      57       0  00:50     271.71
  STOR-10                  0.111       2     0     0         0.152       2       0  01:43       3.50
  STOR-12                  0.046       2     0     0         0.070       3       0  01:53       3.50
  STOR-14                  9.843      21     0     0        14.809      31       0  01:03      17.50
  STOR-16                  0.748      25     0     0         1.984      67       0  02:00       3.31
  
  
  ***********************
  Outfall Loading Summary
  ***********************
  
  ---------------------------------------------------------------------------------------
                         Flow       Avg       Max       Total         Total         Total
                         Freq      Flow      Flow      Volume            TN           TSS
  Outfall Node           Pcnt       CFS       CFS    10^6 gal           lbs           lbs
  ---------------------------------------------------------------------------------------
  OFALL-10              97.58      9.37     13.82       0.368         0.000         0.000
  OFALL-12              83.36    664.36   1018.28      21.609         0.000         0.000
  VIADUCT1              92.75     38.79    192.13       1.391         0.000         0.000
  VIADUCT2              99.86     16.20     66.80       0.604         0.000         0.000
  ---------------------------------------------------------------------------------------
  System                93.39    728.72   1098.62      23.972         0.000         0.000
  
  
  ********************
  Link Flow Summary
  ********************
  
  -----------------------------------------------------------------------------
                                 Maximum  Time of Max   Maximum    Max/    Max/
                                  |Flow|   Occurrence   |Veloc|    Full    Full
  Link                 Type          CFS  days hr:min    ft/sec    Flow   Depth
  -----------------------------------------------------------------------------
  1001OF               CONDUIT    393.88     0  00:50      4.97    1.16    0.72
  105OF                CONDUIT    329.10     0  00:50      4.31    0.19    0.69
  1114                 CONDUIT     17.56     0  00:52     11.18    0.77    1.00
  117                  CONDUIT    335.68     0  01:00     16.46    0.21    0.70
  117OF                CONDUIT   1056.94     0  00:51      9.11    2.39    1.00
  1209                 CONDUIT      8.65     0  00:50      8.61    1.22    0.59
  1211                 CONDUIT      8.67     0  00:56      8.02    0.99    0.59
  1225                 CONDUIT     27.61     0  00:48      9.12    2.17    1.00
  1226                 CONDUIT      0.00     0  01:21      0.00    0.00    0.00
  1228                 CONDUIT      6.69     0  00:51     10.21    0.95    0.78
  1230                 CONDUIT      5.26     0  00:51      7.14    0.89    0.89
  1249                 CONDUIT      0.02     0  00:46      1.49    0.00    0.51
  1269                 CONDUIT      3.22     0  00:51      4.37    0.94    0.89
  1270                 CONDUIT      2.81     0  00:48      5.19    2.70    1.00
  1275                 CONDUIT      0.00     0  01:40      0.25    0.00    0.01
  1276                 CONDUIT      0.00     0  01:47      0.52    0.00    0.01
  1277                 CONDUIT    139.47     0  00:52     15.21    1.51    0.69
  1281                 CONDUIT      7.05     0  00:49      7.21    1.05    1.00
  1284                 CONDUIT      4.31     0  01:00      3.41    0.26    0.67
  1285                 CONDUIT      4.78     0  00:46      3.24    0.57    1.00
  1288                 CONDUIT    109.35     0  00:46      8.97    0.76    1.00
  1289                 CONDUIT     42.78     0  00:53      7.20    1.00    1.00
  1290                 CONDUIT      6.63     0  00:49      3.10    0.61    1.00
  1291                 CONDUIT     58.69     0  00:50     10.29    1.17    1.00
  1293                 CONDUIT     73.08     0  00:50      7.60    2.82    1.00
  1294                 CONDUIT      4.97     0  00:47      6.43    1.02    1.00
  1297                 CONDUIT      3.59     0  00:50      4.57    1.01    1.00
  1298                 CONDUIT      5.72     0  00:46      7.57    0.97    1.00
  1299                 CONDUIT      0.00     0  02:00      0.42    0.00    0.04
  1300                 CONDUIT      0.01     0  00:31      1.95    0.00    0.39
  1306                 CONDUIT     68.93     0  00:54      8.97    1.69    0.96
  1307                 CONDUIT    122.88     0  01:04      9.61    2.00    1.00
  1308                 CONDUIT     46.25     0  00:46      7.66    1.38    1.00
  1312                 CONDUIT      5.57     0  00:49      5.14    1.16    1.00
  1314                 CONDUIT      3.19     0  00:48      4.12    0.43    1.00
  1315                 CONDUIT     62.29     0  00:54      9.13    0.91    0.67
  1316                 CONDUIT      0.00     0  02:00      1.37    0.00    0.51
  1317                 CONDUIT     63.11     0  01:15      7.61    1.14    1.00
  1328                 CONDUIT      2.95     0  00:48      5.59    0.95    1.00
  136OF                CONDUIT    703.51     0  00:48      6.06    1.48    1.00
  13OF                 CONDUIT    169.87     0  00:55      4.14    0.58    0.79
  140OF                CONDUIT    675.36     0  01:04      5.82    1.94    1.00
  144                  CONDUIT     20.34     0  00:53      7.42    0.94    0.84
  144OF                CONDUIT    740.59     0  00:53      8.04    0.61    0.84
  150OF                CONDUIT    565.88     0  00:51      7.18    0.19    0.69
  158                  CONDUIT     54.46     0  01:15      7.97    0.42    1.00
  158OF                CONDUIT    640.80     0  01:15      5.52    0.42    1.00
  15OF                 CONDUIT    169.74     0  00:55      4.41    0.81    0.74
  163OF                CONDUIT    742.87     0  00:53      6.40    0.64    1.00
  166OF                CONDUIT     75.58     0  00:43      1.18    0.11    1.00
  1791OF               CONDUIT    225.01     0  00:46      2.98    0.31    1.00
  179OF                CONDUIT    433.58     0  00:50      3.74    0.52    1.00
  17OF                 CONDUIT    670.99     0  00:52      6.61    0.65    0.89
  183OF                CONDUIT    908.62     0  00:50      7.83    0.92    1.00
  187OF                CONDUIT    631.99     0  01:15      5.45    1.14    1.00
  18OF                 CONDUIT    169.80     0  00:53      3.79    0.86    0.86
  191OF                CONDUIT    619.22     0  00:54      5.71    1.10    1.00
  19OF                 CONDUIT      5.36     0  00:50      0.10    0.01    0.50
  200                  CONDUIT      4.46     0  00:49      5.20    0.99    0.71
  200OF                CONDUIT    531.65     0  00:53      5.46    0.56    0.86
  201OF                CONDUIT    287.94     0  00:50      3.81    1.22    0.69
  205OF                CONDUIT    624.96     0  00:50      5.39    0.53    1.00
  209OFA               CONDUIT    844.30     0  00:52      3.20    0.32    1.00
  229OF                CONDUIT   1270.43     0  00:58      4.81    0.67    1.00
  229OFB               CONDUIT      0.98     0  00:57      1.53    0.82    1.00
  232OF                CONDUIT    791.67     0  00:49      6.82    3.64    1.00
  244OF                CONDUIT    644.17     0  00:50      6.95    0.35    0.82
  257OF                CONDUIT    362.24     0  00:49      4.33    0.20    0.82
  25OF                 CONDUIT      0.40     0  00:51      0.02    0.00    0.18
  2601OF               CONDUIT    587.84     0  00:51      5.07    2.21    1.00
  260OF                CONDUIT    237.61     0  01:36      2.05    0.72    1.00
  267OF                CONDUIT    590.95     0  00:50      6.73    0.37    0.78
  269OF                CONDUIT   1187.67     0  00:52      6.72    0.32    1.00
  276OF                CONDUIT    598.94     0  00:51      5.92    0.51    0.89
  281OF                CONDUIT    725.69     0  00:50      6.26    2.86    1.00
  2851OF               CONDUIT    350.53     0  00:50      4.26    0.66    0.74
  285OF                CONDUIT    632.73     0  00:50      7.17    0.22    0.40
  297OF                CONDUIT    383.91     0  00:50      3.31    0.74    1.00
  306OF                CONDUIT    955.26     0  00:51      8.54    0.66    1.00
  3084                 CONDUIT     17.98     0  00:49      3.83    0.22    1.00
  3091                 CONDUIT     20.05     0  00:48      4.09    0.08    1.00
  31OF                 CONDUIT    282.62     0  00:50      3.89    0.17    0.68
  3231OF               CONDUIT   1006.33     0  00:50      5.76    0.41    0.71
  323OF                CONDUIT    991.31     0  00:51      8.77    1.47    1.00
  325OF                CONDUIT    219.53     0  00:52      2.08    0.24    1.00
  3289                 CONDUIT     60.70     0  00:53     10.91    3.14    1.00
  3293                 CONDUIT     15.90     0  01:08      4.63    0.23    1.00
  32OF                 CONDUIT    196.86     0  00:50      4.01    1.00    0.94
  3339                 CONDUIT     18.27     0  00:51      3.95    1.39    1.00
  3349                 CONDUIT     38.02     0  00:51      7.35    0.85    1.00
  3355                 CONDUIT      1.68     0  00:49      3.15    2.16    1.00
  3423                 CONDUIT     27.51     0  00:48      5.61    1.51    1.00
  3424                 CONDUIT     28.28     0  00:48      5.76    0.98    1.00
  348OF                CONDUIT    650.12     0  00:48      5.60    0.17    1.00
  3493                 CONDUIT     10.78     0  00:48      8.89    1.08    1.00
  3510                 CONDUIT     23.70     0  00:51      3.99    0.79    1.00
  3511                 CONDUIT      3.40     0  00:57      3.43    0.81    1.00
  351OF                CONDUIT    763.89     0  00:48      6.65    0.23    1.00
  3521                 CONDUIT      4.95     0  00:50      6.39    1.81    1.00
  3527                 CONDUIT      3.06     0  00:56      5.87    0.88    1.00
  3629                 CONDUIT      0.00     0  02:00      0.00    0.00    0.00
  3656                 CONDUIT     26.07     0  01:37      3.55    0.75    1.00
  3682                 CONDUIT      1.22     0  00:43      1.93    0.47    1.00
  3690                 CONDUIT     32.01     0  00:58      4.50    1.03    1.00
  371OF                CONDUIT   1155.36     0  00:50     12.51    0.46    0.82
  3843                 CONDUIT      0.00     0  01:30      0.00    0.00    0.00
  384OF                CONDUIT    572.61     0  00:51      4.94    0.53    1.00
  3860                 CONDUIT      0.01     0  01:52      1.03    0.00    0.39
  3873                 CONDUIT      3.93     0  00:47      5.80    0.58    0.88
  387OF                CONDUIT   1162.39     0  00:50      7.30    0.29    0.66
  4030                 CONDUIT    166.47     0  01:03      8.28    0.18    0.71
  4043                 CONDUIT     10.14     0  00:49      8.80    0.72    1.00
  407OF                CONDUIT    382.78     0  00:50      4.76    0.25    0.72
  4103                 CONDUIT     36.59     0  00:52      8.86    0.71    0.81
  4117                 CONDUIT      0.23     0  00:50      0.10    0.00    0.29
  4130                 CONDUIT      0.01     0  00:51      0.03    0.00    0.10
  4155                 CONDUIT      4.20     0  00:50      3.42    0.53    1.00
  4195                 CONDUIT    112.34     0  01:17     15.97    0.96    0.96
  4202                 CONDUIT     11.13     0  00:46      6.55    0.98    1.00
  4203                 CONDUIT      3.44     0  00:46      3.20    0.72    1.00
  421OF                CONDUIT    523.30     0  00:50      6.75    1.30    0.70
  4220                 CONDUIT     16.48     0  00:50      5.66    0.13    0.61
  4232                 CONDUIT     18.19     0  00:53      5.79    0.64    1.00
  4OF                  CONDUIT    169.95     0  00:54      4.53    0.58    0.73
  5002                 CONDUIT     68.52     0  00:50      9.43    1.89    1.00
  5003                 CONDUIT      6.82     0  00:48      8.69    0.98    1.00
  77OF                 CONDUIT   1014.38     0  00:50      8.77    1.04    1.00
  7OF                  CONDUIT    441.67     0  00:58      4.18    0.98    0.96
  879OF                CONDUIT    195.13     0  00:51      3.86    0.81    0.94
  882OF                CONDUIT     16.05     0  00:57      0.44    0.03    0.42
  893OF                CONDUIT    321.57     0  00:51      4.17    0.20    0.69
  8941OF               CONDUIT    192.13     0  00:50      4.69    0.20    0.39
  894OF                CONDUIT    324.12     0  00:50      7.86    0.20    0.39
  9561OF               CONDUIT    184.74     0  00:51      2.86    0.20    0.69
  9562OF               CONDUIT     66.80     0  00:51      2.22    0.13    0.29
  956OF                CONDUIT    156.04     0  00:51      2.69    0.20    0.55
  95OF                 CONDUIT    574.05     0  00:50      7.35    0.45    0.70
  974OF                CONDUIT    544.05     0  00:51      4.74    0.69    1.00
  982OF                CONDUIT    353.00     0  00:51      3.29    1.48    1.00
  989OF                CONDUIT    397.56     0  00:49      3.43    0.24    1.00
  CDT-101              CONDUIT      0.37     0  01:49      1.91    1.27    1.00
  CDT-103              CONDUIT      0.32     0  01:07      1.62    0.93    1.00
  CDT-105              CONDUIT      0.51     0  01:49      2.62    2.34    1.00
  CDT-107              CONDUIT      0.72     0  01:44      3.70    1.70    1.00
  CDT-109              CONDUIT      0.91     0  01:43      5.30    1.03    0.87
  CDT-11               CONDUIT     44.51     0  00:59      6.31    1.61    1.00
  CDT-111              CONDUIT      0.37     0  01:49      1.87    0.55    1.00
  CDT-113              CONDUIT      0.39     0  01:22      2.01    1.24    1.00
  CDT-115              CONDUIT      0.31     0  01:49      1.57    0.52    1.00
  CDT-117              CONDUIT      0.37     0  01:12      1.87    1.06    1.00
  CDT-119              CONDUIT      0.46     0  01:10      2.44    1.43    1.00
  CDT-121              CONDUIT      0.69     0  01:48      3.53    1.23    1.00
  CDT-123              CONDUIT      0.68     0  01:33      3.45    1.07    1.00
  CDT-125              CONDUIT      0.68     0  01:33      4.64    1.14    0.70
  CDT-127              CONDUIT      0.68     0  01:23      2.55    0.09    0.41
  CDT-129              CONDUIT      0.39     0  01:50      2.45    0.51    0.75
  CDT-13               CONDUIT     45.44     0  00:59      8.18    1.42    1.00
  CDT-131              CONDUIT      0.22     0  01:32      1.22    0.48    1.00
  CDT-133              CONDUIT      0.00     0  01:19      1.06    0.00    0.04
  CDT-135              CONDUIT      0.00     0  00:33      1.51    0.00    0.51
  CDT-137              CONDUIT      5.31     0  01:07      4.65    0.55    1.00
  CDT-141              CONDUIT      4.86     0  01:13      3.10    0.65    1.00
  CDT-143              CONDUIT      6.34     0  01:58      3.59    1.56    1.00
  CDT-147              CONDUIT      0.00     0  00:00      0.00    0.00    1.00
  CDT-149              CONDUIT     11.95     0  00:49      7.22    0.75    1.00
  CDT-15               CONDUIT     43.53     0  00:55     12.83    0.35    1.00
  CDT-151              CONDUIT     16.88     0  00:46     11.11    2.04    1.00
  CDT-153              CONDUIT     13.31     0  00:49      9.66    1.03    1.00
  CDT-155              CONDUIT      9.38     0  01:05      5.85    1.05    1.00
  CDT-157              CONDUIT      3.94     0  00:57      5.87    0.34    1.00
  CDT-159              CONDUIT     11.61     0  02:00      8.79    0.99    0.70
  CDT-161              CONDUIT     13.82     0  01:58     11.72    0.05    0.15
  CDT-163              CHANNEL     42.12     0  00:58      0.74    0.03    0.18
  CDT-165              CHANNEL    351.09     0  01:01      1.90    0.14    0.33
  CDT-167              CHANNEL   1121.76     0  00:59      2.62    0.67    0.48
  CDT-169              CHANNEL    804.45     0  01:06      2.54    0.66    0.73
  CDT-17               CONDUIT      0.34     0  01:55      2.21    0.42    0.73
  CDT-171              CHANNEL   1023.34     0  01:05      3.39    0.33    0.32
  CDT-175              CHANNEL   1018.28     0  01:06      5.16    0.03    0.13
  CDT-19               CONDUIT      0.80     0  01:42      4.12    1.00    1.00
  CDT-21               CONDUIT      1.13     0  01:26      5.85    1.07    1.00
  CDT-23               CONDUIT      5.12     0  01:27      7.03    0.71    1.00
  CDT-25               CONDUIT      0.63     0  01:54      3.52    0.96    1.00
  CDT-27               CONDUIT      1.12     0  01:49      5.72    1.00    1.00
  CDT-29               CONDUIT      1.11     0  01:27      5.64    1.04    1.00
  CDT-31               CONDUIT      3.98     0  01:27      5.28    1.38    1.00
  CDT-33               CONDUIT      0.86     0  01:55      4.36    1.05    1.00
  CDT-35               CONDUIT      1.10     0  01:38      5.61    0.99    1.00
  CDT-37               CONDUIT      1.18     0  01:26      6.01    1.04    1.00
  CDT-39               CONDUIT      2.50     0  01:26      3.19    1.14    1.00
  CDT-41               CONDUIT      0.25     0  01:54      1.29    0.43    1.00
  CDT-43               CONDUIT      0.66     0  01:26      3.40    1.59    1.00
  CDT-45               CONDUIT      1.14     0  01:54      5.80    1.00    1.00
  CDT-47               CONDUIT      0.85     0  01:10      4.32    1.12    1.00
  CDT-49               CONDUIT      1.14     0  01:16      3.25    1.49    1.00
  CDT-51               CONDUIT      0.34     0  01:28      1.74    0.62    1.00
  CDT-53               CONDUIT      0.94     0  01:49      5.41    1.61    0.83
  CDT-55               CONDUIT      1.32     0  01:49      7.56    0.71    0.83
  CDT-57               CONDUIT      0.45     0  01:06      2.31    1.05    1.00
  CDT-59               CONDUIT      0.64     0  01:48      3.27    1.86    1.00
  CDT-61               CONDUIT      0.37     0  01:50      3.53    0.41    0.52
  CDT-63               CONDUIT      0.76     0  01:50      4.51    0.67    0.80
  CDT-65               CONDUIT      0.71     0  01:23      3.63    1.32    0.99
  CDT-67               CONDUIT      1.57     0  01:32      6.34    0.89    0.82
  CDT-69               CONDUIT      0.83     0  01:41      4.21    1.00    1.00
  CDT-71               CONDUIT      0.98     0  01:43      4.97    1.00    1.00
  CDT-73               CONDUIT      0.51     0  00:59      2.61    1.01    1.00
  CDT-75               CONDUIT      0.87     0  01:23      4.59    1.34    0.99
  CDT-77               CONDUIT      0.42     0  01:14      2.14    1.06    1.00
  CDT-79               CONDUIT      0.93     0  01:07      4.75    0.99    1.00
  CDT-81               CONDUIT      0.35     0  01:19      1.79    1.14    1.00
  CDT-83               CONDUIT      0.53     0  01:03      2.93    0.99    1.00
  CDT-85               CONDUIT      0.61     0  01:47      3.12    1.01    1.00
  CDT-87               CONDUIT      0.50     0  01:22      2.61    1.03    1.00
  CDT-89               CONDUIT      0.54     0  01:20      2.78    1.01    1.00
  CDT-91               CONDUIT      0.71     0  01:14      3.63    1.27    1.00
  CDT-93               CONDUIT      0.97     0  01:49      5.33    1.19    0.87
  CDT-95               CONDUIT      2.58     0  01:44      6.89    0.29    0.53
  CDT-97               CONDUIT      0.34     0  01:49      1.76    0.59    1.00
  CDT-99               CONDUIT      0.43     0  01:32      2.18    1.53    1.00
  R255                 CHANNEL    461.54     0  01:35      4.24    0.01    0.13
  R26                  CHANNEL    171.72     0  00:55      0.74    0.02    0.36
  R74                  CHANNEL   1250.01     0  00:56      4.14    0.02    0.55
  R83                  CHANNEL    342.05     0  00:53      2.11    0.01    0.43
  RINFLOW              CHANNEL   1057.20     0  00:51      3.63    0.27    0.52
  PUMP-13              PUMP         3.31     0  02:00              0.95
  PUMP-15              PUMP        17.50     0  00:43              1.00
  PUMP-17              PUMP         3.50     0  01:05              1.00
  PUMP-19              PUMP         3.50     0  00:58              1.00
  PUMP1@1115-351       PUMP         0.96     0  00:48              1.00
  ORI-11               ORIFICE     97.92     0  01:04                      0.49
  WEIR1@260-261        WEIR        82.33     0  00:51                      0.97
  OLET-11              DUMMY        0.96     0  00:44
  
  
  ***************************
  Flow Classification Summary
  ***************************
  
  -------------------------------------------------------------------------------------
                      Adjusted    ---------- Fraction of Time in Flow Class ---------- 
                       /Actual         Up    Down  Sub   Sup   Up    Down  Norm  Inlet 
  Conduit               Length    Dry  Dry   Dry   Crit  Crit  Crit  Crit  Ltd   Ctrl  
  -------------------------------------------------------------------------------------
  1001OF                  1.00   0.00  0.00  0.00  1.00  0.00  0.00  0.00  0.00  0.00
  105OF                   1.00   0.00  0.01  0.00  0.99  0.00  0.00  0.00  0.78  0.00
  1114                    4.05   0.00  0.04  0.00  0.91  0.05  0.00  0.00  0.28  0.00
  117                     2.68   0.03  0.00  0.00  0.66  0.31  0.00  0.00  0.51  0.00
  117OF                   1.00   0.03  0.09  0.00  0.74  0.14  0.00  0.00  0.00  0.00
  1209                    1.00   0.00  0.00  0.00  0.09  0.91  0.00  0.00  0.00  0.00
  1211                    1.00   0.00  0.00  0.00  0.33  0.67  0.00  0.00  0.46  0.00
  1225                    1.00   0.00  0.00  0.00  0.99  0.01  0.00  0.00  0.83  0.00
  1226                    1.33   0.00  0.00  0.00  1.00  0.00  0.00  0.00  1.00  0.00
  1228                    2.95   0.03  0.04  0.00  0.02  0.92  0.00  0.00  0.58  0.00
  1230                    1.00   0.00  0.03  0.00  0.83  0.15  0.00  0.00  0.77  0.00
  1249                    1.00   0.00  0.00  0.00  0.84  0.16  0.00  0.00  0.61  0.00
  1269                    1.00   0.00  0.00  0.00  1.00  0.00  0.00  0.00  0.78  0.00
  1270                    1.00   0.00  0.00  0.00  1.00  0.00  0.00  0.00  0.58  0.00
  1275                    1.00   0.00  0.00  0.00  1.00  0.00  0.00  0.00  1.00  0.00
  1276                    1.00   0.00  0.00  0.00  1.00  0.00  0.00  0.00  0.07  0.00
  1277                    1.00   0.00  0.00  0.00  0.05  0.95  0.00  0.00  0.00  0.00
  1281                    1.00   0.00  0.00  0.00  0.90  0.10  0.00  0.00  0.45  0.00
  1284                    1.00   0.00  0.00  0.00  0.91  0.09  0.00  0.00  0.75  0.00
  1285                    1.00   0.00  0.00  0.00  1.00  0.00  0.00  0.00  0.21  0.00
  1288                    1.00   0.00  0.00  0.00  0.92  0.08  0.00  0.00  0.19  0.00
  1289                    1.00   0.00  0.00  0.00  1.00  0.00  0.00  0.00  0.37  0.00
  1290                    1.00   0.03  0.00  0.00  0.97  0.00  0.00  0.00  0.23  0.00
  1291                    2.79   0.00  0.00  0.00  0.85  0.15  0.00  0.00  0.06  0.00
  1293                    1.00   0.00  0.11  0.00  0.89  0.00  0.00  0.00  0.00  0.00
  1294                    1.00   0.00  0.13  0.00  0.86  0.01  0.00  0.00  0.36  0.00
  1297                    1.00   0.00  0.04  0.00  0.96  0.00  0.00  0.00  0.36  0.00
  1298                    1.00   0.00  0.04  0.00  0.81  0.15  0.00  0.00  0.69  0.00
  1299                    1.00   0.00  0.00  0.00  1.00  0.00  0.00  0.00  1.00  0.00
  1300                    1.00   0.00  0.00  0.00  0.60  0.40  0.00  0.00  0.52  0.00
  1306                    1.00   0.00  0.12  0.00  0.88  0.00  0.00  0.00  0.03  0.00
  1307                    1.00   0.03  0.00  0.00  0.94  0.03  0.00  0.00  0.01  0.00
  1308                    1.00   0.04  0.00  0.00  0.92  0.04  0.00  0.00  0.07  0.00
  1312                    1.00   0.07  0.07  0.00  0.65  0.21  0.00  0.00  0.42  0.00
  1314                    1.06   0.00  0.07  0.00  0.93  0.00  0.00  0.00  0.29  0.00
  1315                    1.00   0.00  0.01  0.00  0.29  0.71  0.00  0.00  0.33  0.00
[...]
  CDT-19                  1.00   0.00  0.00  0.00  0.36  0.64  0.00  0.00  0.43  0.00
  CDT-21                  1.00   0.00  0.00  0.00  0.49  0.51  0.00  0.00  0.72  0.00
  CDT-23                  1.00   0.00  0.00  0.00  0.75  0.25  0.00  0.00  0.58  0.00
  CDT-25                  1.00   0.00  0.00  0.00  0.34  0.66  0.00  0.00  0.88  0.00
  CDT-27                  1.00   0.00  0.00  0.00  0.16  0.84  0.00  0.00  0.75  0.00
  CDT-29                  1.00   0.00  0.00  0.00  0.68  0.32  0.00  0.00  0.62  0.00
  CDT-31                  1.00   0.00  0.00  0.00  0.47  0.53  0.00  0.00  0.00  0.00
  CDT-33                  1.00   0.00  0.00  0.00  0.28  0.72  0.00  0.00  0.76  0.00
  CDT-35                  1.00   0.00  0.00  0.00  0.30  0.70  0.00  0.00  0.69  0.00
  CDT-37                  1.00   0.00  0.00  0.00  0.44  0.56  0.00  0.00  0.58  0.00
  CDT-39                  1.00   0.00  0.00  0.00  1.00  0.00  0.00  0.00  0.62  0.00
  CDT-41                  1.00   0.00  0.07  0.00  0.93  0.00  0.00  0.00  0.00  0.54
  CDT-43                  1.00   0.00  0.00  0.00  0.98  0.02  0.00  0.00  0.36  0.00
  CDT-45                  1.00   0.00  0.00  0.00  0.36  0.64  0.00  0.00  0.60  0.00
  CDT-47                  1.00   0.00  0.00  0.00  0.66  0.34  0.00  0.00  0.49  0.00
  CDT-49                  1.00   0.00  0.00  0.00  1.00  0.00  0.00  0.00  0.55  0.00
  CDT-51                  1.00   0.06  0.01  0.00  0.94  0.00  0.00  0.00  0.47  0.00
  CDT-53                  1.00   0.00  0.06  0.00  0.05  0.89  0.00  0.00  0.16  0.00
  CDT-55                  1.00   0.00  0.00  0.00  0.05  0.94  0.00  0.00  1.00  0.00
  CDT-57                  1.00   0.00  0.00  0.00  1.00  0.00  0.00  0.00  0.50  0.00
  CDT-59                  1.00   0.00  0.00  0.00  0.97  0.03  0.00  0.00  0.26  0.00
  CDT-61                  1.00   0.00  0.00  0.00  0.00  1.00  0.00  0.00  0.99  0.00
  CDT-63                  1.00   0.00  0.00  0.00  0.09  0.91  0.00  0.00  1.00  0.00
  CDT-65                  1.00   0.00  0.00  0.00  0.96  0.04  0.00  0.00  0.53  0.00
  CDT-67                  1.00   0.00  0.00  0.00  0.00  1.00  0.00  0.00  0.52  0.00
  CDT-69                  1.00   0.00  0.00  0.00  0.45  0.55  0.00  0.00  0.64  0.00
  CDT-71                  1.00   0.00  0.00  0.00  0.89  0.10  0.00  0.00  0.56  0.00
  CDT-73                  1.00   0.00  0.00  0.00  0.95  0.05  0.00  0.00  0.20  0.00
  CDT-75                  1.00   0.00  0.00  0.00  0.58  0.41  0.00  0.00  0.18  0.00
  CDT-77                  1.00   0.00  0.00  0.00  1.00  0.00  0.00  0.00  0.41  0.00
  CDT-79                  1.00   0.00  0.00  0.00  0.91  0.09  0.00  0.00  0.48  0.00
  CDT-81                  1.00   0.00  0.00  0.00  1.00  0.00  0.00  0.00  0.49  0.00
  CDT-83                  1.00   0.00  0.00  0.00  0.80  0.20  0.00  0.00  0.41  0.00
  CDT-85                  1.00   0.00  0.00  0.00  0.85  0.15  0.00  0.00  0.61  0.00
  CDT-87                  1.00   0.00  0.00  0.00  0.79  0.21  0.00  0.00  0.16  0.00
  CDT-89                  1.00   0.00  0.00  0.00  0.86  0.14  0.00  0.00  0.60  0.00
  CDT-91                  1.00   0.00  0.00  0.00  0.56  0.44  0.00  0.00  0.00  0.00
  CDT-93                  1.00   0.00  0.00  0.00  0.11  0.89  0.00  0.00  0.43  0.00
  CDT-95                  1.00   0.00  0.00  0.00  0.34  0.66  0.00  0.00  0.91  0.00
  CDT-97                  1.00   0.00  0.00  0.00  0.98  0.02  0.00  0.00  0.64  0.00
  CDT-99                  1.00   0.00  0.00  0.00  1.00  0.00  0.00  0.00  0.51  0.00
  R255                    2.35   0.13  0.00  0.00  0.87  0.00  0.00  0.00  0.57  0.00
  R26                     1.00   0.00  0.12  0.00  0.88  0.00  0.00  0.00  0.36  0.00
  R74                     1.49   0.08  0.04  0.00  0.88  0.00  0.00  0.00  0.13  0.00
  R83                     1.00   0.09  0.05  0.00  0.87  0.00  0.00  0.00  0.22  0.00
  RINFLOW                 1.00   0.00  0.00  0.00  1.00  0.00  0.00  0.00  0.57  0.00
  
  
  *************************
  Conduit Surcharge Summary
  *************************
  
  ----------------------------------------------------------------------------
                                                           Hours        Hours 
                         --------- Hours Full --------   Above Full   Capacity
  Conduit                Both Ends  Upstream  Dnstream   Normal Flow   Limited
  ----------------------------------------------------------------------------
  1001OF                      0.01      0.08      0.01      0.07         0.01
  105OF                       0.01      0.01      1.30      0.01         0.01
  1114                        1.21      1.21      1.32      0.01         0.01
  117                         0.01      0.01      0.25      0.01         0.01
  117OF                       1.13      1.13      1.24      0.48         0.01
  1209                        0.01      0.56      0.01      0.22         0.01
  1211                        0.01      0.01      0.28      0.01         0.01
  1225                        0.25      0.25      0.35      0.15         0.01
  1230                        0.01      0.01      1.28      0.01         0.01
  1249                        0.01      0.01      0.06      0.01         0.01
  1269                        0.01      0.01      0.24      0.01         0.01
  1270                        0.31      0.31      0.33      0.31         0.31
  1277                        0.01      0.31      0.01      0.25         0.01
  1281                        0.14      0.16      0.78      0.01         0.01
  1284                        0.01      0.01      1.21      0.01         0.01
  1285                        1.21      1.21      1.28      0.01         0.01
  1288                        1.21      1.21      1.23      0.01         0.01
  1289                        1.21      1.21      1.26      0.01         0.02
  1290                        0.78      0.78      1.27      0.01         0.01
  1291                        0.48      0.48      0.61      0.01         0.01
  1293                        0.71      0.71      0.75      0.44         0.01
  1294                        0.23      0.23      1.20      0.01         0.01
  1297                        0.14      0.14      1.35      0.01         0.01
  1298                        0.14      0.14      1.32      0.01         0.01
  1306                        0.01      0.01      1.26      0.95         0.01
  1307                        0.23      0.23      0.96      0.97         0.01
  1308                        1.23      1.24      1.23      0.39         0.37
  1312                        0.02      0.13      0.02      0.13         0.02
  1314                        0.08      0.08      1.38      0.01         0.01
  1316                        0.01      0.01      0.38      0.01         0.01
  1317                        0.82      0.82      0.88      0.45         0.45
  1328                        0.19      0.19      1.33      0.01         0.01
  136OF                       1.26      1.26      1.30      0.99         0.01
  140OF                       1.24      1.24      1.26      1.02         0.01
  144                         0.01      0.01      1.30      0.01         0.01
  144OF                       0.01      0.01      1.30      0.01         0.01
  150OF                       0.01      0.01      0.18      0.01         0.01
  158                         0.88      0.88      1.26      0.01         0.01
  158OF                       1.04      1.04      1.30      0.01         0.01
  163OF                       1.22      1.22      1.30      0.01         0.01
  166OF                       0.97      0.97      1.28      0.01         0.01
  1791OF                      0.35      0.35      1.22      0.01         0.01
  179OF                       0.35      0.35      1.24      0.01         0.01
  17OF                        0.01      0.01      0.19      0.01         0.01
  183OF                       0.18      0.18      1.22      0.01         0.01
  187OF                       0.97      0.97      1.04      0.45         0.45
  18OF                        0.01      0.07      0.01      0.01         0.01
  191OF                       0.01      0.19      0.01      0.15         0.01
  19OF                        0.01      0.01      0.01      0.01         0.01
  200                         0.01      0.13      0.01      0.01         0.01
  200OF                       0.01      0.01      1.21      0.01         0.01
  201OF                       0.01      0.01      0.29      0.11         0.01
  205OF                       0.35      0.35      1.24      0.01         0.01
  209OFA                      0.81      0.81      1.22      0.01         0.01
  229OF                       0.18      0.18      0.74      0.01         0.01
  229OFB                      0.80      0.80      1.06      0.01         0.01
  232OF                       0.97      0.97      1.01      0.29         0.01
  244OF                       0.01      0.01      1.24      0.01         0.01
  257OF                       0.01      0.01      1.33      0.01         0.01
  2601OF                      0.89      0.90      0.90      0.43         0.40
  260OF                       0.90      0.90      0.97      0.01         0.01
  267OF                       0.01      0.01      0.18      0.01         0.01
  269OF                       0.18      0.18      1.22      0.01         0.01
  276OF                       0.01      0.01      1.01      0.01         0.01
  281OF                       0.90      0.90      0.95      0.45         0.01
  297OF                       0.74      0.74      0.95      0.01         0.01
  306OF                       0.03      0.03      0.95      0.01         0.01
  3084                        0.06      0.06      1.24      0.01         0.01
  3091                        1.19      1.19      1.24      0.01         0.01
  31OF                        0.01      0.01      1.18      0.01         0.01
  3231OF                      0.01      0.01      0.25      0.01         0.01
  323OF                       0.03      0.03      0.67      0.13         0.01
  325OF                       0.06      0.06      0.33      0.01         0.01
  3289                        0.01      0.01      1.26      1.26         0.01
  3293                        0.01      0.01      0.15      0.01         0.01
  32OF                        0.01      0.01      0.01      0.01         0.01
  3339                        0.15      0.15      0.17      0.02         0.01
  3349                        0.17      0.17      0.48      0.01         0.01
  3355                        0.06      0.53      0.06      0.55         0.06
  3423                        0.31      0.31      0.34      0.01         0.01
  3424                        0.34      0.34      0.49      0.01         0.01
  348OF                       1.19      1.19      1.25      0.01         0.01
  3493                        0.01      0.01      0.16      0.10         0.01
  3510                        0.61      0.61      0.81      0.01         0.01
  3511                        0.78      0.78      1.01      0.01         0.01
  351OF                       1.11      1.11      1.25      0.01         0.01
  3521                        0.23      0.23      1.30      0.38         0.01
  3527                        0.06      0.06      1.36      0.01         0.01
  3656                        0.76      0.76      0.82      0.01         0.01
  3682                        1.17      1.17      1.31      0.01         0.01
  3690                        0.71      0.71      0.78      0.14         0.17
  371OF                       0.01      0.01      0.67      0.01         0.01
  384OF                       1.11      1.11      1.23      0.01         0.01
  3873                        0.01      0.01      1.35      0.01         0.01
  387OF                       0.01      0.01      0.34      0.01         0.01
  4043                        0.02      0.02      1.26      0.01         0.01
  407OF                       0.01      0.01      1.30      0.01         0.01
  4103                        0.01      0.01      0.12      0.01         0.01
  4155                        1.22      1.22      1.26      0.01         0.01
  4195                        0.01      0.01      0.84      0.01         0.01
  4202                        0.23      0.23      1.25      0.01         0.01
  4203                        1.22      1.22      1.27      0.01         0.01
  421OF                       0.01      0.04      0.01      0.10         0.01
  4220                        0.01      0.01      1.09      0.01         0.01
  4232                        1.22      1.22      1.30      0.01         0.01
  5002                        0.19      0.78      0.19      0.85         0.19
  5003                        0.07      0.07      0.30      0.01         0.01
  77OF                        1.12      1.13      1.16      0.07         0.05
  7OF                         0.01      0.19      0.01      0.01         0.01
  879OF                       0.01      0.01      0.07      0.01         0.01
  893OF                       0.01      0.01      1.23      0.01         0.01
  9561OF                      0.01      0.01      1.19      0.01         0.01
  974OF                       0.40      0.40      0.95      0.01         0.01
  982OF                       0.33      0.33      0.40      0.01         0.02
  989OF                       0.83      0.83      1.25      0.01         0.01
  CDT-101                     0.87      0.87      0.88      0.40         0.01
  CDT-103                     0.88      0.88      0.93      0.01         0.01
  CDT-105                     0.88      0.93      0.88      0.95         0.88
  CDT-107                     0.24      0.88      0.24      0.88         0.24
  CDT-109                     0.01      0.24      0.01      0.14         0.01
  CDT-11                      0.21      0.26      0.37      0.22         0.13
  CDT-111                     0.49      0.49      0.88      0.01         0.01
  CDT-113                     0.62      0.66      0.62      0.26         0.18
  CDT-115                     0.48      0.48      0.80      0.01         0.01
  CDT-117                     0.80      0.80      0.86      0.02         0.02
  CDT-119                     0.82      0.86      0.82      0.44         0.38
  CDT-121                     0.82      0.82      0.83      0.78         0.78
  CDT-123                     0.83      0.83      0.84      0.83         0.83
  CDT-125                     0.01      0.84      0.01      0.83         0.01
  CDT-129                     0.01      0.01      0.83      0.01         0.01
  CDT-13                      0.26      0.37      0.70      0.18         0.01
  CDT-131                     0.78      0.78      0.86      0.01         0.01
  CDT-135                     0.01      0.01      1.19      0.01         0.01
  CDT-137                     0.84      0.84      0.91      0.01         0.01
  CDT-141                     0.71      0.71      0.84      0.01         0.02
  CDT-143                     0.70      0.70      0.71      0.13         0.15
  CDT-147                     0.70      1.17      0.70      0.01         0.70
  CDT-149                     1.17      1.17      1.25      0.01         0.01
  CDT-15                      0.70      0.70      1.15      0.01         0.01
  CDT-151                     1.23      1.23      1.25      1.08         0.01
  CDT-153                     1.18      1.18      1.23      0.01         0.01
  CDT-155                     0.88      0.88      1.18      0.09         0.01
  CDT-157                     0.88      0.88      1.05      0.01         0.01
  CDT-159                     0.01      0.88      0.01      0.01         0.01
  CDT-17                      0.01      0.01      0.52      0.01         0.01
  CDT-19                      0.52      0.52      0.54      0.01         0.01
  CDT-21                      0.54      0.54      0.79      0.10         0.04
  CDT-23                      0.54      0.54      1.14      0.01         0.01
  CDT-25                      0.22      0.22      0.25      0.01         0.01
  CDT-27                      0.25      0.25      0.55      0.01         0.01
  CDT-29                      0.55      0.55      0.96      0.01         0.01
  CDT-31                      0.54      0.75      0.54      0.37         0.17
  CDT-33                      0.41      0.41      0.44      0.31         0.31
  CDT-35                      0.44      0.44      0.61      0.01         0.01
  CDT-37                      0.61      0.61      0.94      0.07         0.07
  CDT-39                      0.72      0.72      0.75      0.18         0.18
  CDT-41                      0.23      0.23      0.72      0.01         0.01
  CDT-43                      0.55      0.72      0.55      0.51         0.33
  CDT-45                      0.55      0.55      0.83      0.21         0.21
  CDT-47                      0.83      0.83      0.92      0.83         0.83
  CDT-49                      0.84      0.86      0.84      0.36         0.30
  CDT-51                      0.59      0.59      0.72      0.01         0.01
  CDT-53                      0.01      0.72      0.01      0.71         0.01
  CDT-55                      0.01      0.01      0.91      0.01         0.01
  CDT-57                      0.91      0.91      0.93      0.09         0.09
  CDT-59                      0.93      0.93      0.94      0.96         0.93
  CDT-63                      0.01      0.01      0.64      0.01         0.01
  CDT-65                      0.01      0.64      0.01      0.70         0.01
  CDT-69                      0.62      0.62      0.69      0.01         0.01
  CDT-71                      0.69      0.69      1.21      0.01         0.01
  CDT-73                      1.21      1.21      1.28      1.11         1.11
  CDT-75                      0.01      1.28      0.01      1.28         0.01
  CDT-77                      0.93      0.93      0.95      0.89         0.90
  CDT-79                      0.95      0.95      1.21      0.01         0.01
  CDT-81                      0.93      0.93      0.94      0.92         0.93
  CDT-83                      0.94      0.94      0.95      0.01         0.01
  CDT-85                      0.70      0.70      0.74      0.36         0.36
  CDT-87                      0.74      0.74      0.76      0.70         0.70
  CDT-89                      0.76      0.76      0.80      0.73         0.74
  CDT-91                      0.76      0.80      0.76      0.27         0.18
  CDT-93                      0.01      0.76      0.01      0.75         0.01
  CDT-97                      0.49      0.49      0.85      0.01         0.01
  CDT-99                      0.85      0.85      0.87      0.81         0.82
  
  
  ***************
  Pumping Summary
  ***************
  
  ---------------------------------------------------------------------------------------------------------
                                                  Min       Avg       Max     Total     Power    % Time Off
                        Percent   Number of      Flow      Flow      Flow    Volume     Usage    Pump Curve
  Pump                 Utilized   Start-Ups       CFS       CFS       CFS  10^6 gal     Kw-hr    Low   High
  ---------------------------------------------------------------------------------------------------------
  PUMP-13                 48.20           1      0.00      2.95      3.31     0.077      6.54    0.0    0.0
  PUMP-15                 62.96           5      0.00     12.38     17.50     0.421     49.17    0.0    0.3
  PUMP-17                  9.01          81      0.00      3.35      3.50     0.016      0.79    0.0   20.6
  PUMP-19                 30.19         108      0.00      3.50      3.50     0.057      3.76    0.0   68.8
  PUMP1@1115-351          60.06           1      0.00      0.96      0.96     0.031      0.42    0.0  100.0
  

  Analysis begun on:  Tue Nov 20 16:56:14 2018
  Analysis ended on:  Tue Nov 20 16:56:15 2018
  Total elapsed time: 00:00:01