
  EPA STORM WATER MANAGEMENT MODEL - VERSION 5.1 (Build 5.1.013)
  --------------------------------------------------------------

  
  *********************************************************
  NOTE: The summary statistics displayed in this report are
  based on results found at every computational time step,  
  not just on results from each reporting time step.
  *********************************************************
  
  ****************
  Analysis Options
  ****************
  Flow Units ............... CMS
  Process Models:
    Rainfall/Runoff ........ NO
    RDII ................... NO
    Snowmelt ............... NO
    Groundwater ............ NO
    Flow Routing ........... YES
    Ponding Allowed ........ NO
    Water Quality .......... NO
  Flow Routing Method ...... DYNWAVE
  Surcharge Method ......... EXTRAN
  Starting Date ............ 04/11/2018 00:00:00
  Ending Date .............. 04/11/2018 04:00:00
  Antecedent Dry Days ...... 0.0
  Report Time Step ......... 00:00:10
  Routing Time Step ........ 1.00 sec
  Variable Time Step ....... NO
  Maximum Trials ........... 8
  Number of Threads ........ 1
  Head Tolerance ........... 0.001000 m
  
  
  **************************        Volume        Volume
  Flow Routing Continuity        hectare-m      10^6 ltr
  **************************     ---------     ---------
  Dry Weather Inflow .......         0.000         0.000
  Wet Weather Inflow .......         0.000         0.000
  Groundwater Inflow .......         0.000         0.000
  RDII Inflow ..............         0.000         0.000
  External Inflow ..........       249.229      2492.318
  External Outflow .........       248.753      2487.552
  Flooding Loss ............         0.000         0.000
  Evaporation Loss .........         0.000         0.000
  Exfiltration Loss ........         0.000         0.000
  Initial Stored Volume ....         1.168        11.685
  Final Stored Volume ......         1.994        19.944
  Continuity Error (%) .....        -0.140
  
  
  ********************************
  Highest Flow Instability Indexes
  ********************************
  All links are stable.
  
  
  *************************
  Routing Time Step Summary
  *************************
  Minimum Time Step           :     1.00 sec
  Average Time Step           :     1.00 sec
  Maximum Time Step           :     1.00 sec
  Percent in Steady State     :     0.00
  Average Iterations per Step :     2.01
  Percent Not Converging      :     0.01
  
  
  ******************
  Node Depth Summary
  ******************
  
  ---------------------------------------------------------------------------------
                                 Average  Maximum  Maximum  Time of Max    Reported
                                   Depth    Depth      HGL   Occurrence   Max Depth
  Node                 Type       Meters   Meters   Meters  days hr:min      Meters
  ---------------------------------------------------------------------------------
  1                    JUNCTION     1.45     2.40    14.50     0  00:00        2.19
  2                    JUNCTION     1.44     2.41    14.46     0  00:00        2.21
  8                    JUNCTION     2.00     2.43    14.58     0  01:37        2.43
  9                    JUNCTION     1.42     2.32    14.42     0  00:00        1.67
  3                    JUNCTION     1.24     1.57    13.57     0  01:43        1.57
  29                   JUNCTION     0.89     1.45    11.05     0  00:00        1.44
  30                   JUNCTION     1.24     1.57     8.77     0  01:45        1.57
  31                   JUNCTION     0.89     1.58     6.38     0  00:00        1.56
  32                   JUNCTION     1.23     1.57     3.97     0  01:46        1.57
  10                   OUTFALL      0.89     1.06     1.06     0  01:46        1.06
  
  
  *******************
  Node Inflow Summary
  *******************
  
  -------------------------------------------------------------------------------------------------
                                  Maximum  Maximum                  Lateral       Total        Flow
                                  Lateral    Total  Time of Max      Inflow      Inflow     Balance
                                   Inflow   Inflow   Occurrence      Volume      Volume       Error
  Node                 Type           CMS      CMS  days hr:min    10^6 ltr    10^6 ltr     Percent
  -------------------------------------------------------------------------------------------------
  1                    JUNCTION     0.000  200.022     0  01:37           0   2.21e+003      -0.065
  2                    JUNCTION     0.000  116.869     0  00:00           0   1.17e+003      -0.127
  8                    JUNCTION   200.000  200.000     0  01:37    2.2e+003    2.2e+003      -0.001
  9                    JUNCTION    20.000   20.000     0  00:00         288         288      -0.183
  3                    JUNCTION     0.000  268.226     0  00:00           0    2.5e+003       0.105
  29                   JUNCTION     0.000  262.194     0  00:00           0   2.49e+003       0.043
  30                   JUNCTION     0.000  290.324     0  00:00           0   2.49e+003       0.069
  31                   JUNCTION     0.000  311.730     0  00:00           0   2.49e+003       0.043
  32                   JUNCTION     0.000  233.355     0  00:00           0   2.49e+003       0.069
  10                   OUTFALL      0.000  220.000     0  01:46           0   2.49e+003       0.000
  
  
  **********************
  Node Surcharge Summary
  **********************
  
  No nodes were surcharged.
  
  
  *********************
  Node Flooding Summary
  *********************
  
  No nodes were flooded.
  
  
  ***********************
  Outfall Loading Summary
  ***********************
  
  -----------------------------------------------------------
                         Flow       Avg       Max       Total
                         Freq      Flow      Flow      Volume
  Outfall Node           Pcnt       CMS       CMS    10^6 ltr
  -----------------------------------------------------------
  10                   100.00   172.784   220.000    2487.551
  -----------------------------------------------------------
  System               100.00   172.784   220.000    2487.551
  
  
  ********************
  Link Flow Summary
  ********************
  
  -----------------------------------------------------------------------------
                                 Maximum  Time of Max   Maximum    Max/    Max/
                                  |Flow|   Occurrence   |Veloc|    Full    Full
  Link                 Type          CMS  days hr:min     m/sec    Flow   Depth
  -----------------------------------------------------------------------------
  26                   CONDUIT   262.194     0  00:00      9.27    0.09    0.27
  27                   CONDUIT   290.324     0  00:00     10.07    0.10    0.27
  28                   CONDUIT   311.730     0  00:00     10.59    0.10    0.28
  29                   CONDUIT   233.355     0  00:00      8.75    0.08    0.26
  30                   CONDUIT   220.000     0  01:46      9.60    0.07    0.26
  31                   CONDUIT   200.022     0  01:37      4.35    0.47    0.48
  32                   CONDUIT   118.538     0  01:45      3.31    0.20    0.34
  33                   CONDUIT   116.482     0  00:00      2.20    0.27    0.47
  34                   CONDUIT   154.830     0  00:00      4.45    0.36    0.33
  35                   CONDUIT    81.562     0  01:37      2.18    0.19    0.48
  
  
  ***************************
  Flow Classification Summary
  ***************************
  
  -------------------------------------------------------------------------------------
                      Adjusted    ---------- Fraction of Time in Flow Class ---------- 
                       /Actual         Up    Down  Sub   Sup   Up    Down  Norm  Inlet 
  Conduit               Length    Dry  Dry   Dry   Crit  Crit  Crit  Crit  Ltd   Ctrl  
  -------------------------------------------------------------------------------------
  26                      1.00   0.00  0.00  0.00  0.00  1.00  0.00  0.00  0.03  0.00
  27                      1.00   0.00  0.00  0.00  0.00  1.00  0.00  0.00  0.80  0.00
  28                      1.00   0.00  0.00  0.00  0.00  1.00  0.00  0.00  0.04  0.00
  29                      1.00   0.00  0.00  0.00  0.00  1.00  0.00  0.00  0.80  0.00
  30                      1.00   0.00  0.00  0.00  0.00  1.00  0.00  0.00  0.02  0.00
  31                      1.00   0.00  0.00  0.00  0.33  0.67  0.00  0.00  0.00  0.00
  32                      1.00   0.00  0.00  0.00  0.90  0.10  0.00  0.00  0.00  0.00
  33                      1.00   0.00  0.00  0.00  1.00  0.00  0.00  0.00  0.00  0.00
  34                      1.00   0.00  0.00  0.00  1.00  0.00  0.00  0.00  0.00  0.00
  35                      1.00   0.00  0.00  0.00  1.00  0.00  0.00  0.00  0.00  0.00
  
  
  *************************
  Conduit Surcharge Summary
  *************************
  
  No conduits were surcharged.
  

  Analysis begun on:  Tue Nov 20 16:56:18 2018
  Analysis ended on:  Tue Nov 20 16:56:20 2018
  Total elapsed time: 00:00:02