
  EPA STORM WATER MANAGEMENT MODEL - VERSION 5.1 (Build 5.1.013)
  --------------------------------------------------------------

  Scenario Run :  BASE 
  
  
  *********************************************************
  NOTE: The summary statistics displayed in this report are
  based on results found at every computational time step,  
  not just on results from each reporting time step.
  *********************************************************
  
  ****************
  Analysis Options
  ****************
  Flow Units ............... LPS
  Process Models:
    Rainfall/Runoff ........ NO
    RDII ................... NO
    Snowmelt ............... NO
    Groundwater ............ NO
    Flow Routing ........... YES
    Ponding Allowed ........ NO
    Water Quality .......... YES
  Flow Routing Method ...... DYNWAVE
  Surcharge Method ......... EXTRAN
  Starting Date ............ 01/01/2016 00:00:00
  Ending Date .............. 01/01/2016 12:00:00
  Antecedent Dry Days ...... 5.0
  Report Time Step ......... 00:01:00
  Routing Time Step ........ 1.00 sec
  Variable Time Step ....... YES
  Maximum Trials ........... 8
  Number of Threads ........ 1
  Head Tolerance ........... 0.000100 m
  
  
  *********************
  Control Actions Taken
  *********************

  
  **************************        Volume        Volume
  Flow Routing Continuity        hectare-m      10^6 ltr
  **************************     ---------     ---------
  Dry Weather Inflow .......         0.247         2.470
  Wet Weather Inflow .......         0.000         0.000
  Groundwater Inflow .......         0.000         0.000
  RDII Inflow ..............         0.000         0.000
  External Inflow ..........         0.000         0.000
  External Outflow .........         0.000         0.000
  Flooding Loss ............         0.000         0.000
  Evaporation Loss .........         0.000         0.000
  Exfiltration Loss ........         0.000         0.000
  Initial Stored Volume ....         0.000         0.000
  Final Stored Volume ......         0.096         0.960
  Continuity Error (%) .....        61.148
  
  
  **************************        TRACER
  Quality Routing Continuity            kg
  **************************    ----------
  Dry Weather Inflow .......       247.046
  Wet Weather Inflow .......         0.000
  Groundwater Inflow .......         0.000
  RDII Inflow ..............         0.000
  External Inflow ..........         0.000
  External Outflow .........         0.000
  Flooding Loss ............         0.000
  Exfiltration Loss ........         0.000
  Mass Reacted .............         0.000
  Initial Stored Mass ......         0.000
  Final Stored Mass ........        95.989
  Continuity Error (%) .....        61.145
  
  
  *************************
  Highest Continuity Errors
  *************************
  Node MC104 (50.70%)
  Node MC105 (26.55%)
  Node MC106 (21.65%)
  Node MC107 (12.91%)
  Node MC108 (6.91%)
  
  
  ***************************
  Time-Step Critical Elements
  ***************************
  None
  
  
  ********************************
  Highest Flow Instability Indexes
  ********************************
  Link MC110_MC109 (40)
  Link MC112_MC111 (18)
  Link MC106_MC105 (9)
  Link MC108_MC107 (4)
  Link MC107_MC106 (3)
  
  
  *************************
  Routing Time Step Summary
  *************************
  Minimum Time Step           :     1.00 sec
  Average Time Step           :     1.00 sec
  Maximum Time Step           :     1.00 sec
  Percent in Steady State     :    -0.00
  Average Iterations per Step :     2.00
  Percent Not Converging      :     0.00
  
  
  ******************
  Node Depth Summary
  ******************
  
  ---------------------------------------------------------------------------------
                                 Average  Maximum  Maximum  Time of Max    Reported
                                   Depth    Depth      HGL   Occurrence   Max Depth
  Node                 Type       Meters   Meters   Meters  days hr:min      Meters
  ---------------------------------------------------------------------------------
  OUTFALL_KAWANASTP2   OUTFALL      0.00     0.00     0.00     0  00:00        0.00
  JCT-12               STORAGE      5.87     6.04     5.04     0  07:45        6.04
  MC103                STORAGE      4.13     6.63     2.58     0  12:00        6.63
  MC104                STORAGE      1.40     3.33     2.58     0  12:00        3.33
  MC105                STORAGE      0.93     2.58     2.58     0  12:00        2.58
  MC106                STORAGE      0.68     2.18     2.58     0  12:00        2.18
  MC107                STORAGE      0.33     1.33     2.58     0  12:00        1.33
  MC108                STORAGE      0.19     0.84     2.59     0  12:00        0.84
  MC109                STORAGE      0.12     0.24     2.59     0  12:00        0.24
  MC110                STORAGE      0.07     0.07     4.57     0  11:57        0.07
  MC111                STORAGE      0.07     0.07     5.22     0  00:47        0.07
  MC112                STORAGE      0.06     0.06     6.46     0  01:04        0.06
  MC113                STORAGE      0.04     0.04     9.60     0  03:25        0.04
  MC140                STORAGE      0.04     0.04     7.71     0  00:07        0.04
  MC400                STORAGE      0.09     0.39     2.59     0  12:00        0.39
  MC401                STORAGE      0.12     0.13     3.13     0  01:59        0.13
  MC402                STORAGE      0.10     0.11     3.36     0  11:08        0.11
  MC403                STORAGE      0.11     0.11     3.60     0  01:54        0.11
  MC404                STORAGE      0.09     0.09     4.54     0  11:22        0.09
  MC405                STORAGE      0.09     0.09     5.54     0  01:31        0.09
  MC406                STORAGE      0.05     0.05     8.45     0  00:44        0.05
  MC407                STORAGE      0.05     0.05    14.24     0  00:21        0.05
  MC410                STORAGE      0.04     0.04     8.03     0  02:01        0.04
  MC500                STORAGE      0.05     0.05     6.45     0  00:33        0.05
  MC501                STORAGE      0.08     0.08     6.88     0  00:31        0.08
  MC502                STORAGE      0.07     0.07     7.67     0  00:25        0.07
  MC503                STORAGE      0.07     0.07     8.07     0  00:16        0.07
  MC504                STORAGE      0.04     0.04    10.13     0  02:12        0.04
  
  
  *******************
  Node Inflow Summary
  *******************
  
  -------------------------------------------------------------------------------------------------
                                  Maximum  Maximum                  Lateral       Total        Flow
                                  Lateral    Total  Time of Max      Inflow      Inflow     Balance
                                   Inflow   Inflow   Occurrence      Volume      Volume       Error
  Node                 Type           LPS      LPS  days hr:min    10^6 ltr    10^6 ltr     Percent
  -------------------------------------------------------------------------------------------------
  OUTFALL_KAWANASTP2   OUTFALL       0.00     0.00     0  00:00           0           0       0.000 ltr
  JCT-12               STORAGE       2.77     2.77     0  00:00        0.12        0.12       4.174
  MC103                STORAGE       2.77    57.19     0  03:11        0.12       0.905     653.212
  MC104                STORAGE       5.86    88.48     0  03:27       0.253        1.38     102.824
  MC105                STORAGE       0.00    49.33     0  05:26           0        1.49      36.139
  MC106                STORAGE       1.44    31.39     0  06:02      0.0621       0.852      27.626
  MC107                STORAGE       2.67    27.61     0  08:53       0.115       0.909      14.820
  MC108                STORAGE       0.00    27.42     0  09:40           0       0.853       7.427
  MC109                STORAGE       2.37    22.34     0  11:47       0.102       0.889       4.165
  MC110                STORAGE       0.00     8.47     0  11:53           0       0.356       1.761
  MC111                STORAGE       1.25     8.71     0  01:05       0.054        0.36       1.082
  MC112                STORAGE       2.27     4.55     0  03:25      0.0982       0.195       1.688
  MC113                STORAGE       2.27     2.27     0  00:00      0.0982      0.0982       1.225
  MC140                STORAGE       2.64     2.64     0  00:00       0.114       0.114       0.360
  MC400                STORAGE       1.73    24.16     0  11:38      0.0745       0.855       4.216
  MC401                STORAGE       0.00    18.99     0  11:09           0       0.787       0.730
  MC402                STORAGE       0.00    19.15     0  11:04           0       0.789       0.307
  MC403                STORAGE       3.00    18.93     0  00:47        0.13       0.794       0.643
  MC404                STORAGE       1.50    15.90     0  11:14      0.0648       0.671       0.922
  MC405                STORAGE       4.87    14.33     0  00:44        0.21       0.614       1.208
  MC406                STORAGE       2.23     6.71     0  00:27      0.0962       0.287       0.992
  MC407                STORAGE       4.45     4.45     0  00:00       0.192       0.192       0.908
  MC410                STORAGE       2.78     2.78     0  00:00        0.12        0.12       0.678
  MC500                STORAGE       0.00    10.37     0  00:31           0       0.438       0.243
  MC501                STORAGE       2.37    10.39     0  00:27       0.102        0.44       0.450
  MC502                STORAGE       0.00     8.04     0  00:21           0       0.341       0.701
  MC503                STORAGE       5.94     7.96     0  02:12       0.257       0.343       0.671
  MC504                STORAGE       2.01     2.01     0  00:00       0.087       0.087       0.784
  
  
  **********************
  Node Surcharge Summary
  **********************
  
  No nodes were surcharged.
  
  
  *********************
  Node Flooding Summary
  *********************
  
  No nodes were flooded.
  
  
  **********************
  Storage Volume Summary
  **********************
  
  --------------------------------------------------------------------------------------------------
                         Average     Avg  Evap Exfil       Maximum     Max    Time of Max    Maximum
                          Volume    Pcnt  Pcnt  Pcnt        Volume    Pcnt     Occurrence    Outflow
  Storage Unit           1000 m3    Full  Loss  Loss       1000 m3    Full    days hr:min        LPS
  --------------------------------------------------------------------------------------------------
  JCT-12                   0.006      90     0     0         0.006      93       0  07:45       3.01
  MC103                    0.052      42     0     0         0.083      67       0  12:00      24.24
  MC104                    0.001      21     0     0         0.003      50       0  12:00      51.65
  MC105                    0.001      16     0     0         0.003      46       0  12:00      69.21
  MC106                    0.001      12     0     0         0.002      40       0  12:00      28.77
  MC107                    0.000       6     0     0         0.001      23       0  12:00      29.95
  MC108                    0.000       3     0     0         0.001      15       0  12:00      24.94
  MC109                    0.000       2     0     0         0.000       5       0  12:00      27.42
  MC110                    0.000       2     0     0         0.000       2       0  11:57       9.66
  MC111                    0.000       3     0     0         0.000       3       0  00:47       8.47
  MC112                    0.000       2     0     0         0.000       2       0  01:04       4.82
  MC113                    0.000       2     0     0         0.000       2       0  03:25       2.27
  MC140                    0.000       2     0     0         0.000       2       0  00:07       2.75
  MC400                    0.000       3     0     0         0.000      11       0  12:00      20.56
  MC401                    0.000       4     0     0         0.000       5       0  01:59      22.43
  MC402                    0.000       3     0     0         0.000       4       0  11:08      18.99
  MC403                    0.000       4     0     0         0.000       5       0  01:54      19.15
  MC404                    0.000       5     0     0         0.000       5       0  11:22      15.93
  MC405                    0.000       5     0     0         0.000       5       0  01:31      14.40
  MC406                    0.000       4     0     0         0.000       4       0  00:44       6.68
  MC407                    0.000       2     0     0         0.000       2       0  00:21       4.48
  MC410                    0.000       2     0     0         0.000       2       0  02:01       2.78
  MC500                    0.000       3     0     0         0.000       3       0  00:33      10.36
  MC501                    0.000       5     0     0         0.000       5       0  00:31      10.37
  MC502                    0.000       4     0     0         0.000       4       0  00:25       8.02
  MC503                    0.000       4     0     0         0.000       4       0  00:16       8.04
  MC504                    0.000       2     0     0         0.000       2       0  02:12       2.01
  
  
  ***********************
  Outfall Loading Summary
  ***********************
  
  -------------------------------------------------------------------------
                         Flow       Avg       Max       Total         Total
                         Freq      Flow      Flow      Volume        TRACER
  Outfall Node           Pcnt       LPS       LPS    10^6 ltr            kg
  -------------------------------------------------------------------------
  OUTFALL_KAWANASTP2     0.00      0.00      0.00       0.000         0.000
  -------------------------------------------------------------------------
  System                 0.00      0.00      0.00       0.000         0.000
  
  
  ********************
  Link Flow Summary
  ********************
  
  -----------------------------------------------------------------------------
                                 Maximum  Time of Max   Maximum    Max/    Max/
                                  |Flow|   Occurrence   |Veloc|    Full    Full
  Link                 Type          LPS  days hr:min     m/sec    Flow   Depth
  -----------------------------------------------------------------------------
  CDT-23               CONDUIT      3.01     0  07:46      0.50    0.04    0.57
  MC104_MC103          CONDUIT     51.65     0  02:48      0.41    0.03    1.00
  MC105_MC104          CONDUIT     69.21     0  03:30      0.67    0.17    1.00
  MC106_MC105          CONDUIT     28.77     0  05:26      0.66    0.13    1.00
  MC107_MC106          CONDUIT     29.95     0  06:02      0.64    0.16    1.00
  MC108_MC107          CONDUIT     24.94     0  08:53      0.67    0.18    1.00
  MC109_MC108          CONDUIT     27.42     0  09:40      0.66    0.20    0.77
  MC110_MC109          CONDUIT      9.66     0  11:47      0.53    0.17    0.52
  MC111_MC110          CONDUIT      8.47     0  11:53      0.71    0.13    0.25
  MC112_MC111          CONDUIT      4.82     0  01:05      0.51    0.16    0.29
  MC113_MC112          CONDUIT      2.27     0  03:25      0.45    0.06    0.21
  MC140_MC111          CONDUIT      2.75     0  00:08      0.76    0.06    0.25
  MC400_MC105          CONDUIT     20.56     0  02:02      0.91    0.06    0.93
  MC401_MC400          CONDUIT     22.43     0  11:38      0.73    0.16    0.55
  MC402_MC401          CONDUIT     18.99     0  11:09      0.68    0.12    0.25
  MC403_MC402          CONDUIT     19.15     0  11:04      0.69    0.12    0.24
  MC404_MC403          CONDUIT     15.93     0  00:47      0.63    0.10    0.22
  MC405_MC404          CONDUIT     14.40     0  11:14      0.70    0.13    0.24
  MC406_MC405          CONDUIT      6.68     0  00:44      0.48    0.03    0.19
  MC407_MC406          CONDUIT      4.48     0  00:27      0.77    0.10    0.21
  MC410_MC405          CONDUIT      2.78     0  02:01      0.49    0.07    0.29
  MC500_MC109          CONDUIT     10.36     0  00:33      0.97    0.07    0.49
  MC501_MC500          CONDUIT     10.37     0  00:31      0.91    0.13    0.22
  MC502_MC501          CONDUIT      8.02     0  00:27      0.57    0.14    0.25
  MC503_MC502          CONDUIT      8.04     0  00:21      0.68    0.13    0.25
  MC504_MC503          CONDUIT      2.01     0  02:12      0.27    0.05    0.24
  
  
  ***************************
  Flow Classification Summary
  ***************************
  
  -------------------------------------------------------------------------------------
                      Adjusted    ---------- Fraction of Time in Flow Class ---------- 
                       /Actual         Up    Down  Sub   Sup   Up    Down  Norm  Inlet 
  Conduit               Length    Dry  Dry   Dry   Crit  Crit  Crit  Crit  Ltd   Ctrl  
  -------------------------------------------------------------------------------------
  CDT-23                  1.00   0.06  0.00  0.00  0.35  0.00  0.00  0.59  0.35  0.00
  MC104_MC103             1.00   0.00  0.00  0.00  0.99  0.01  0.00  0.00  0.26  0.00
  MC105_MC104             1.00   0.00  0.00  0.00  1.00  0.00  0.00  0.00  0.01  0.00
  MC106_MC105             1.00   0.00  0.00  0.00  0.99  0.01  0.00  0.00  0.03  0.00
  MC107_MC106             1.00   0.00  0.00  0.00  1.00  0.00  0.00  0.00  0.01  0.00
  MC108_MC107             1.00   0.00  0.00  0.00  1.00  0.00  0.00  0.00  0.03  0.00
  MC109_MC108             1.00   0.00  0.00  0.00  0.98  0.02  0.00  0.00  0.01  0.00
  MC110_MC109             1.00   0.00  0.00  0.00  1.00  0.00  0.00  0.00  0.14  0.00
  MC111_MC110             1.00   0.00  0.00  0.00  0.96  0.04  0.00  0.00  0.00  0.00
  MC112_MC111             1.00   0.00  0.00  0.00  1.00  0.00  0.00  0.00  0.06  0.00
  MC113_MC112             1.00   0.00  0.00  0.00  0.99  0.01  0.00  0.00  0.98  0.00
  MC140_MC111             1.00   0.00  0.00  0.00  0.98  0.02  0.00  0.00  0.99  0.00
  MC400_MC105             1.00   0.00  0.00  0.00  0.94  0.06  0.00  0.00  0.86  0.00
  MC401_MC400             1.00   0.00  0.00  0.00  1.00  0.00  0.00  0.00  0.02  0.00
  MC402_MC401             1.00   0.00  0.00  0.00  0.98  0.02  0.00  0.00  0.00  0.00
  MC403_MC402             1.00   0.00  0.00  0.00  0.99  0.01  0.00  0.00  0.00  0.00
  MC404_MC403             1.00   0.00  0.00  0.00  1.00  0.00  0.00  0.00  0.00  0.00
  MC405_MC404             1.00   0.00  0.00  0.00  0.98  0.02  0.00  0.00  0.00  0.00
  MC406_MC405             1.00   0.00  0.00  0.00  1.00  0.00  0.00  0.00  1.00  0.00
  MC407_MC406             1.00   0.00  0.00  0.00  0.00  1.00  0.00  0.00  0.00  0.00
  MC410_MC405             1.00   0.00  0.00  0.00  0.99  0.01  0.00  0.00  0.99  0.00
  MC500_MC109             1.00   0.00  0.00  0.00  0.96  0.04  0.00  0.00  1.00  0.00
  MC501_MC500             1.00   0.00  0.00  0.00  0.00  1.00  0.00  0.00  0.00  0.00
  MC502_MC501             1.00   0.00  0.00  0.00  1.00  0.00  0.00  0.00  0.01  0.00
  MC503_MC502             1.00   0.00  0.00  0.00  0.99  0.01  0.00  0.00  0.00  0.00
  MC504_MC503             1.00   0.00  0.00  0.00  1.00  0.00  0.00  0.00  1.00  0.00
  
  
  *************************
  Conduit Surcharge Summary
  *************************
  
  ----------------------------------------------------------------------------
                                                           Hours        Hours 
                         --------- Hours Full --------   Above Full   Capacity
  Conduit                Both Ends  Upstream  Dnstream   Normal Flow   Limited
  ----------------------------------------------------------------------------
  CDT-23                      0.01      0.01      3.40      0.01         0.01
  MC104_MC103                 7.17      7.17     10.46      0.01         0.01
  MC105_MC104                 5.44      5.44      7.37      0.01         0.01
  MC106_MC105                 5.07      5.07      6.12      0.01         0.01
  MC107_MC106                 2.75      2.75      5.07      0.01         0.01
  MC108_MC107                 1.45      1.45      2.96      0.01         0.01
  MC109_MC108                 0.01      0.01      1.45      0.01         0.01
  MC400_MC105                 0.01      0.01      6.32      0.01         0.01
  
  
  ***************************
  Link Pollutant Load Summary
  ***************************
  
  ----------------------------------
                              TRACER
  Link                            kg
  ----------------------------------
  CDT-23                      10.867
  MC104_MC103                 71.007
  MC105_MC104                108.690
  MC106_MC105                 66.467
  MC107_MC106                 78.915
  MC108_MC107                 79.246
  MC109_MC108                 85.252
  MC110_MC109                 34.903
  MC111_MC110                 35.569
  MC112_MC111                 19.185
  MC113_MC112                  9.696
  MC140_MC111                 11.379
  MC400_MC105                 81.991
  MC401_MC400                 78.036
  MC402_MC401                 78.658
  MC403_MC402                 78.910
  MC404_MC403                 66.470
  MC405_MC404                 60.617
  MC406_MC405                 28.387
  MC407_MC406                 19.057
  MC410_MC405                 11.935
  MC500_MC109                 43.699
  MC501_MC500                 43.816
  MC502_MC501                 33.802
  MC503_MC502                 34.061
  MC504_MC503                  8.625
  

  Analysis begun on:  Tue Nov 20 16:56:09 2018
  Analysis ended on:  Tue Nov 20 16:56:14 2018
  Total elapsed time: 00:00:05