
  EPA STORM WATER MANAGEMENT MODEL - VERSION 5.1 (Build 5.1.013)
  --------------------------------------------------------------

  
  *************
  Element Count
  *************
  Number of rain gages ...... 1
  Number of subcatchments ... 4
  Number of nodes ........... 0
  Number of links ........... 0
  Number of pollutants ...... 0
  Number of land uses ....... 0
  
  
  ****************
  Raingage Summary
  ****************
                                                      Data       Recording
  Name                 Data Source                    Type       Interval 
  ------------------------------------------------------------------------
  1                    Rainfall                       INTENSITY   15 min.
  
  
  ********************
  Subcatchment Summary
  ********************
  Name                       Area     Width   %Imperv    %Slope Rain Gage            Outlet              
  -----------------------------------------------------------------------------------------------------------
  1                          5.00    140.00      0.00    0.5000 1                    1                   
  2                          5.00    140.00      0.00    0.5000 1                    2                   
  3                          5.00    140.00      0.00    0.5000 1                    3                   
  4                          5.00    140.00      0.00    0.5000 1                    4                   
  
  
  
  *********************************************************
  NOTE: The summary statistics displayed in this report are
  based on results found at every computational time step,  
  not just on results from each reporting time step.
  *********************************************************
  
  ****************
  Analysis Options
  ****************
  Flow Units ............... CFS
  Process Models:
    Rainfall/Runoff ........ YES
    RDII ................... NO
    Snowmelt ............... NO
    Groundwater ............ NO
    Flow Routing ........... NO
    Water Quality .......... NO
  Infiltration Method ...... HORTON
  Surcharge Method ......... EXTRAN
  Starting Date ............ 11/23/2017 00:00:00
  Ending Date .............. 11/23/2017 16:00:00
  Antecedent Dry Days ...... 0.0
  Report Time Step ......... 00:15:00
  Wet Time Step ............ 00:05:00
  Dry Time Step ............ 01:00:00
  
  
  **************************        Volume         Depth
  Runoff Quantity Continuity     acre-feet        inches
  **************************     ---------       -------
  Total Precipitation ......         3.333         2.000
  Evaporation Loss .........         0.000         0.000
  Infiltration Loss ........         2.474         1.485
  Surface Runoff ...........         0.841         0.504
  Final Storage ............         0.018         0.011
  Continuity Error (%) .....        -0.003
  
  
  ***************************
  Subcatchment Runoff Summary
  ***************************
  
  ------------------------------------------------------------------------------------------------------------------------------
                            Total      Total      Total      Total     Imperv       Perv      Total       Total     Peak  Runoff
                           Precip      Runon       Evap      Infil     Runoff     Runoff     Runoff      Runoff   Runoff   Coeff
  Subcatchment                 in         in         in         in         in         in         in    10^6 gal      CFS
  ------------------------------------------------------------------------------------------------------------------------------
  1                          2.00       0.00       0.00       1.60       0.00       0.40       0.40        0.05     0.42   0.198
  2                          2.00       0.00       0.00       1.70       0.00       0.30       0.30        0.04     0.29   0.149
  3                          2.00       0.00       0.00       1.65       0.00       0.35       0.35        0.05     0.39   0.175
  4                          2.00       0.00       0.00       0.98       0.00       0.97    