
  EPA STORM WATER MANAGEMENT MODEL - VERSION 5.1 (Build 5.1.013)
  --------------------------------------------------------------

  Example User5 
  
  
  *********************************************************
  NOTE: The summary statistics displayed in this report are
  based on results found at every computational time step,  
  not just on results from each reporting time step.
  *********************************************************
  
  ****************
  Analysis Options
  ****************
  Flow Units ............... CFS
  Process Models:
    Rainfall/Runoff ........ YES
    RDII ................... NO
    Snowmelt ............... NO
    Groundwater ............ NO
    Flow Routing ........... YES
    Ponding Allowed ........ NO
    Water Quality .......... NO
  Infiltration Method ...... HORTON
  Flow Routing Method ...... DYNWAVE
  Surcharge Method ......... SLOT
  Starting Date ............ 08/11/1998 00:00:00
  Ending Date .............. 08/11/1998 23:59:00
  Antecedent Dry Days ...... 0.0
  Report Time Step ......... 00:05:00
  Wet Time Step ............ 00:01:00
  Dry Time Step ............ 00:01:00
  Routing Time Step ........ 10.00 sec
  Variable Time Step ....... YES
  Maximum Trials ........... 8
  Number of Threads ........ 1
  Head Tolerance ........... 0.001000 ft
  
  
  **************************        Volume         Depth
  Runoff Quantity Continuity     acre-feet        inches
  **************************     ---------       -------
  Total Precipitation ......       287.426         2.930
  Evaporation Loss .........         4.314         0.044
  Infiltration Loss ........       108.755         1.109
  Surface Runoff ...........       173.623         1.770
  Final Storage ............         0.801         0.008
  Continuity Error (%) .....        -0.023
  
  
  **************************        Volume        Volume
  Flow Routing Continuity        acre-feet      10^6 gal
  **************************     ---------     ---------
  Dry Weather Inflow .......         0.000         0.000
  Wet Weather Inflow .......       173.516        56.543
  Groundwater Inflow .......         0.000         0.000
  RDII Inflow ..............         0.000         0.000
  External Inflow ..........       121.504        39.594
  External Outflow .........       229.217        74.694
  Flooding Loss ............         0.000         0.000
  Evaporation Loss .........         0.278         0.090
  Exfiltration Loss ........         0.000         0.000
  Initial Stored Volume ....         3.241         1.056
  Final Stored Volume ......        77.668        25.309
  Continuity Error (%) .....        -2.985
  
  
  *************************
  Highest Continuity Errors
  *************************
  Node 3SB22 (33.77%)
  Node 4SB21 (25.25%)
  Node 17SB6 (-22.10%)
  Node 2SB21 (17.16%)
  Node 18SB6 (-11.28%)
  
  
  ***************************
  Time-Step Critical Elements
  ***************************
  Link DEERWPIPE (54.08%)
  Link Brad_Out (34.82%)
  Link 789pipe (4.19%)
  Link LIB_5 (1.24%)
  Link LIB_7 (1.16%)
  
  
  ********************************
  Highest Flow Instability Indexes
  ********************************
  Link 892pipe (48)
  Link 695 (21)
  Link 36inch_2 (21)
  Link 658 (18)
  Link 812pipe (17)
  
  
  *************************
  Routing Time Step Summary
  *************************
  Minimum Time Step           :     0.10 sec
  Average Time Step           :     3.14 sec
  Maximum Time Step           :    10.00 sec
  Percent in Steady State     :    -0.00
  Average Iterations per Step :     2.32
  Percent Not Converging      :     1.04
  
  
  ***************************
  Subcatchment Runoff Summary
  ***************************
  
  ------------------------------------------------------------------------------------------------------------------------------
                            Total      Total      Total      Total     Imperv       Perv      Total       Total     Peak  Runoff
                           Precip      Runon       Evap      Infil     Runoff     Runoff     Runoff      Runoff   Runoff   Coeff
  Subcatchment                 in         in         in         in         in         in         in    10^6 gal      CFS
  ------------------------------------------------------------------------------------------------------------------------------
  1SB5#1                     2.93       0.00       0.05       0.90       1.26       0.72       1.97        0.29    15.42   0.673
  2SB5#1                     2.93       0.00       0.05       0.89       1.31       0.67       1.98        0.18     8.67   0.675
  1SB23#1                    2.93       0.00       0.05       0.86       1.35       0.65       2.01        0.42    20.14   0.685
  2SB23#1                    2.93       0.00       0.04       1.07       0.96       0.85       1.81        0.32    17.41   0.619
  4SB23#1                    2.93       0.00       0.05       0.92       1.26       0.68       1.95        0.22     9.99   0.664
  3SB23#1                    2.93       0.00       0.04       0.96       1.15       0.77       1.92        0.31    16.80   0.655
  49SB1#1                    2.93       0.00       0.03       1.40       0.47       1.03       1.50        0.53    21.78   0.511
  51SB1#1                    2.93       0.00       0.05       0.77       1.39       0.72       2.11        0.07     5.76   0.720
  1121#1                     2.93       0.00       0.05       1.21       0.92       0.75       1.67        0.97    36.00   0.570
  6SB3#1                     2.93       0.00       0.04       1.13       0.85       0.91       1.76        0.16     9.09   0.601
  4SB3#1                     2.93       0.00       0.05       0.96       1.15       0.76       1.91        0.15     7.81   0.653
  5SB3#1                     2.93       0.00       0.04       0.98       1.08       0.82       1.90        0.13     7.58   0.648
  3SB3#1                     2.93       0.00       0.05       0.79       1.37       0.72       2.09        0.13     9.67   0.712
  2SB3#1                     2.93       0.00       0.04       0.96       1.10       0.82       1.92        0.13     8.37   0.655
  8SB3_OF#1                  2.93       0.00       0.02       1.40       0.27       1.23       1.50        0.18     9.63   0.514
  1SB4#1                     2.93       0.00       0.05       0.86       1.27       0.75       2.02        0.12     8.27   0.690
  2SB4#1                     2.93       0.00       0.05       0.85       1.31       0.71       2.02        0.08     5.08   0.691
  44SB1#1                    2.93       0.00       0.05       1.14       1.05       0.68       1.73        0.28     9.73   0.589
  45SB1#1                    2.93       0.00       0.04       1.14       0.92       0.83       1.75        0.25    11.51   0.596
  43SB1#1                    2.93       0.00       0.05       0.81       1.42       0.64       2.06        0.25    13.39   0.704
  8SB1#1                     2.93       0.00       0.04       1.43       0.62       0.83       1.45        0.40    13.55   0.495
  6SB1#1                     2.93       0.00       0.03       1.56       0.22       1.13       1.34        0.27     9.41   0.459
  2SB1#1                     2.93       0.00       0.09       0.26       2.33       0.19       2.53        0.22     5.27   0.863
  3SB1#1                     2.93       0.00       0.05       1.15       0.97       0.75       1.72        0.33    12.90   0.587
  4SB1#1                     2.93       0.00       0.04       1.33       0.78       0.77       1.54        0.46    15.77   0.527
  5SB1#1                     2.93       0.00       0.04       1.29       0.67       0.93       1.60        0.70    30.55   0.546
  7SB1#1                     2.93       0.00       0.04       1.27       0.74       0.88       1.62        0.45    19.06   0.552
  9SB1#1                     2.93       0.00       0.04       1.46       0.55       0.88       1.43        0.46    15.86   0.487
  11SB1#1                    2.93       0.00       0.06       0.73       1.58       0.55       2.13        0.36    15.65   0.726
  32SB1#1                    2.93       0.00       0.06       0.83       1.45       0.57       2.03        0.23     9.30   0.691
  34SB1#1                    2.93       0.00       0.05       0.89       1.37       0.60       1.97        0.47    18.64   0.672
  39SB1#1                    2.93       0.00       0.05       1.03       1.11       0.73       1.84        0.45    20.07   0.628
  38SB1#1                    2.93       0.00       0.05       0.95       1.28       0.63       1.91        0.19     7.22   0.653
  37SB1#1                    2.93       0.00       0.04       1.08       0.94       0.87       1.80        0.17     9.54   0.616
  35SB1#1                    2.93       0.00       0.05       1.00       1.11       0.77       1.88        0.29    14.94   0.642
  33SB1#1                    2.93       0.00       0.05       1.00       1.12       0.76       1.88        0.23    11.32   0.641
  12SB1#1                    2.93       0.00       0.05       1.06       1.11       0.70       1.81        0.31    12.34   0.618
  22SB1#1                    2.93       0.00       0.04       1.04       1.06       0.78       1.84        0.28    13.81   0.627
  21SB1#1                    2.93       0.00       0.04       1.18       0.89       0.81       1.71        0.53    22.72   0.582
  14SB1#1                    2.93       0.00       0.05       1.09       1.13       0.64       1.77        0.48    16.28   0.604
  13SB1#1                    2.93       0.00       0.04       1.10       0.97       0.81       1.79        0.37    17.63   0.609
  23SB1#1                    2.93       0.00       0.05       1.23       0.94       0.69       1.64        0.47    15.64   0.558
  20SB1#1                    2.93       0.00       0.04       1.11       0.93       0.84       1.78        0.43    21.36   0.607
  24SB1#1                    2.93       0.00       0.04       0.92       1.15       0.82       1.97        0.20    14.04   0.672
  26SB1#1                    2.93       0.00       0.04       1.08       0.91       0.90       1.80        0.20    11.53   0.616
  27SB1#1                    2.93       0.00       0.04       1.01       1.05       0.82       1.87        0.25    13.97   0.639
  28SB1#1                    2.93       0.00       0.05       1.02       1.16       0.69       1.85        0.51    20.81   0.631
  25SB1#1                    2.93       0.00       0.05       1.06       1.11       0.70       1.81        0.59    23.29   0.617
  19SB1#1                    2.93       0.00       0.04       1.07       1.03       0.77       1.81        0.27    12.26   0.616
  18SB1#1                    2.93       0.00       0.05       0.80       1.43       0.64       2.07        0.17     9.02   0.705
  15SB1#1                    2.93       0.00       0.05       1.00       1.12       0.76       1.87        0.21    10.34   0.639
  31SB1#1                    2.93       0.00       0.06       0.71       1.65       0.48       2.14        0.62    21.95   0.729
  40SB1#1                    2.93       0.00       0.04       1.22       0.77       0.90       1.66        0.70    32.25   0.568
  41SB1#1                    2.93       0.00       0.03       1.72       0.06       1.12       1.18        0.45    12.56   0.403
  46SB1#1                    2.93       0.00       0.04       1.07       1.03       0.77       1.81        0.31    14.29   0.617
  4SB5_OF#1                  2.93       0.00       0.03       1.24       0.49       1.17       1.67        0.15    11.61   0.569
  15SB6#1                    2.93       0.00       0.05       0.90       1.26       0.71       1.97        0.57    30.30   0.674
  14SB6#1                    2.93       0.00       0.03       1.61       0.20       1.09       1.29        0.17     5.05   0.442
  12SB6#1                    2.93       0.00       0.07       0.18       2.49       0.18       2.67        0.32    24.55   0.910
  19SB6#1                    2.93       0.00       0.04       1.09       0.91       0.89       1.80        0.24    13.81   0.613
  26SB6#1                    2.93       0.00       0.04       0.94       1.16       0.79       1.94        0.14     8.40   0.663
  25SB6#1                    2.93       0.00       0.04       1.02       1.08       0.78       1.86        0.39    19.74   0.634
  24SB6#1                    2.93       0.00       0.04       0.99       1.11       0.77       1.89        0.49    25.79   0.643
  20SB6#1                    2.93       0.00       0.04       1.09       0.86       0.94       1.80        0.18    11.19   0.615
  18SB6#1                    2.93       0.00       0.04       1.16       0.88       0.85       1.73        0.22    10.14   0.589
  17SB6#1                    2.93       0.00       0.06       0.69       1.60       0.56       2.17        0.21    10.76   0.739
  16SB6#1                    2.93       0.00       0.05       0.90       1.28       0.69       1.98        0.43    21.81   0.674
  11SB6#1                    2.93       0.00       0.05       0.85       1.39       0.62       2.01        0.37    16.27   0.686
  10SB6#1                    2.93       0.00       0.07       0.43       2.06       0.33       2.40        0.58    21.37   0.819
  21SB6#1                    2.93       0.00       0.04       1.01       1.08       0.79       1.87        0.23    12.48   0.639
  22SB6#1                    2.93       0.00       0.04       0.96       1.14       0.78       1.92        0.28    15.91   0.655
  23SB6#1                    2.93       0.00       0.05       0.86       1.32       0.70       2.02        0.37    20.96   0.688
  13SB6#1                    2.93       0.00       0.05       1.07       1.05       0.75       1.81        0.61    26.90   0.617
  7SB6#1                     2.93       0.00       0.06       0.53       1.89       0.43       2.32        0.18     8.55   0.792
  8SB6#1                     2.93       0.00       0.04       1.26       0.19       1.44       1.63        0.30    11.27   0.556
  5SB6#1                     2.93       0.00       0.03       1.35       0.38       1.17       1.55        0.24    13.02   0.530
  4SB6#1                     2.93       0.00       0.04       1.10       1.00       0.77       1.78        0.25    10.94   0.606
  3SB6#1                     2.93       0.00       0.04       1.04       1.04       0.80       1.84        0.21    10.81   0.628
  1SB22#1                    2.93       0.00       0.05       0.89       1.32       0.66       1.98        0.22    10.60   0.677
  2SB22#1                    2.93       0.00       0.03       1.64       0.29       0.96       1.25        0.20     5.37   0.428
  2SB21#1                    2.93       0.00       0.04       1.54       0.42       0.94       1.35        0.21     6.67   0.462
  1SB21#1                    2.93       0.00       0.05       0.85       1.34       0.69       2.03        0.19    10.99   0.692
  1SB20#1                    2.93       0.00       0.05       0.83       1.43       0.60       2.03        0.25    10.91   0.693
  1SB7#1                     2.93       0.00       0.03       1.24       0.68       0.97       1.65        0.25    12.37   0.564
  2SB7#1                     2.93       0.00       0.05       0.94       1.18       0.76       1.94        0.08     4.54   0.661
  3SB7#1                     2.93       0.00       0.03       1.26       0.66       0.98       1.63        0.09     4.54   0.557
  5SB7_OF#1                  2.93       0.00       0.02       1.39       0.23       1.29       1.52        0.26    17.39   0.519
  2SB20_OF#1                 2.93       0.00       0.05       0.89       1.25       0.73       1.98        0.33    18.61   0.676
  1SB19#1                    2.93       0.00       0.06       0.74       1.31       0.82       2.12        0.37    16.15   0.724
  2SB19#1                    2.93       0.00       0.03       1.67       0.11       1.13       1.24        0.11     3.36   0.422
  4SB19_OF#1                 2.93       0.00       0.02       1.41       0.18       1.32       1.50        0.11     7.47   0.512
  4SB9#1                     2.93       0.00       0.03       1.42       0.45       1.02       1.48        0.61    24.19   0.505
  3SB9#1                     2.93       0.00       0.03       1.45       0.30       1.15       1.46        0.26    11.10   0.497
  1SB9#1                     2.93       0.00       0.04       1.20       0.83       0.85       1.68        0.41    18.25   0.574
  SB1018_OF#1                2.93       0.00       0.02       1.35       0.27       1.29       1.56        0.10     7.37   0.532
  SB1018_OF#2                2.93       0.00       0.03       1.06       0.80       1.04       1.84        0.21    18.73   0.628
  SB1018_OF#3                2.93       0.00       0.04       0.88       1.20       0.80       2.00        0.65    47.16   0.682
  17SB11#1                   2.93       0.00       0.05       1.10       1.04       0.73       1.77        1.15    46.00   0.605
  17SB11#2                   2.93       0.00       0.04       1.33       0.62       0.94       1.56        1.58    65.74   0.532
  17SB11#3                   2.93       0.00       0.06       0.57       1.76       0.54       2.30        0.57    46.53   0.785
  16SB11#1                   2.93       0.00       0.05       1.09       1.03       0.75       1.78        1.23    52.12   0.608
  15SB11#1                   2.93       0.00       0.04       1.24       0.80       0.85       1.65        0.76    32.03   0.562
  14SB11#1                   2.93       0.00       0.04       1.26       0.78       0.85       1.62        0.50    20.65   0.554
  13SB11#1                   2.93       0.00       0.04       1.23       0.73       0.93       1.66        0.82    39.58   0.568
  5SB11#1                    2.93       0.00       0.06       0.53       1.69       0.63       2.32        0.57    28.33   0.793
  11SB11#1                   2.93       0.00       0.04       1.15       0.85       0.89       1.74        0.35    17.75   0.593
  10SB11#1                   2.93       0.00       0.04       1.15       0.83       0.91       1.74        0.36    19.04   0.593
  9SB11#1                    2.93       0.00       0.03       1.39       0.42       1.10       1.51        0.24    10.70   0.516
  12SB11#1                   2.93       0.00       0.07       0.43       2.06       0.35       2.41        0.41    17.74   0.822
  8SB11#1                    2.93       0.00       0.05       0.59       1.73       0.55       2.28        0.19    14.41   0.777
  7SB11#1                    2.93       0.00       0.07       0.34       2.19       0.31       2.50        0.28    16.05   0.854
  6SB11#1                    2.93       0.00       0.07       0.47       2.01       0.35       2.36        0.60    21.44   0.805
  4SB11#1                    2.93       0.00       0.07       0.50       1.75       0.59       2.34        0.73    32.52   0.799
  2SB11#1                    2.93       0.00       0.07       0.52       1.75       0.57       2.32        0.81    30.07   0.791
  2SB11#2                    2.93       0.00       0.06       0.69       1.35       0.82       2.17        1.00    52.83   0.742
  5SB17#1                    2.93       0.00       0.04       1.08       1.03       0.77       1.80        0.41    18.47   0.615
  8SB17#1                    2.93       0.00       0.04       1.25       0.76       0.89       1.64        0.39    17.35   0.560
  7SB17#1                    2.93       0.00       0.04       1.10       0.98       0.80       1.78        0.35    16.37   0.607
  6SB17#1                    2.93       0.00       0.04       1.19       0.77       0.92       1.70        0.25    12.73   0.579
  9SB17#1                    2.93       0.00       0.03       1.34       0.47       1.09       1.56        0.23    11.41   0.534
  16SB17#1                   2.93       0.00       0.04       1.27       0.73       0.89       1.62        0.18     7.93   0.552
  10SB17#1                   2.93       0.00       0.03       1.52       0.29       1.09       1.38        0.27     9.34   0.471
  14SB17#1                   2.93       0.00       0.04       1.30       0.76       0.82       1.58        0.19     7.24   0.539
  11SB17#1                   2.93       0.00       0.04       1.14       0.85       0.90       1.75        0.23    12.01   0.596
  13SB17#1                   2.93       0.00       0.04       1.84       0.15       0.90       1.05        0.10     2.06   0.358
  17SB17#1                   2.93       0.00       0.04       1.60       0.50       0.78       1.28        0.32     8.94   0.437
  4SB17#1                    2.93       0.00       0.04       0.97       1.12       0.80       1.91        0.36    20.76   0.652
  3SB17#1                    2.93       0.00       0.05       0.85       1.38       0.64       2.02        0.35    16.24   0.688
  2SB17#1                    2.93       0.00       0.06       0.83       1.13       0.90       2.03        0.51    21.06   0.693
  SB1216_OF#1                2.93       0.00       0.05       0.75       1.25       0.86       2.12        0.43    20.99   0.722
  SB1216_OF#2                2.93       0.00       0.07       0.17       2.32       0.36       2.68        0.28    22.85   0.913
  1SB14#1                    2.93       0.00       0.04       0.94       1.16       0.78       1.94        0.18    10.83   0.661
  2SB14#1                    2.93       0.00       0.04       1.26       0.70       0.93       1.63        0.71    32.21   0.556
  3SB14#1                    2.93       0.00       0.04       1.20       0.78       0.91       1.69        0.28    13.73   0.577
  4SB14#1                    2.93       0.00       0.04       1.12       0.82       0.95       1.77        0.26    15.57   0.603
  7SB14#1                    2.93       0.00       0.02       1.55       0.17       1.18       1.36        0.18     6.68   0.463
  6SB14#1                    2.93       0.00       0.05       0.81       1.38       0.68       2.06        0.18    10.78   0.704
  5SB14#1                    2.93       0.00       0.02       1.61       0.12       1.18       1.30        0.13     4.48   0.443
  9SB14#1                    2.93       0.00       0.04       1.08       0.97       0.84       1.81        0.30    15.72   0.617
  8SB14#1                    2.93       0.00       0.05       0.81       1.37       0.70       2.07        0.12     7.96   0.705
  10SB14#1                   2.93       0.00       0.06       0.73       1.63       0.49       2.11        0.49    16.74   0.722
  11SB14_OF#1                2.93       0.00       0.03       1.71       0.13       1.06       1.19        0.59    15.34   0.407
  11SB14_OF#2                2.93       0.00       0.05       0.78       1.21       0.88       2.09        0.95    45.01   0.714
  0.10_UP#1                  2.93       0.00       0.04       1.30       0.74       0.85       1.58        4.85   190.21   0.540
  3SB21#1                    2.93       0.00       0.03       1.50       0.40       0.99       1.39        0.16     5.45   0.476
  
  
  ******************
  Node Depth Summary
  ******************
  
  ---------------------------------------------------------------------------------
                                 Average  Maximum  Maximum  Time of Max    Reported
                                   Depth    Depth      HGL   Occurrence   Max Depth
  Node                 Type         Feet     Feet     Feet  days hr:min        Feet
  ---------------------------------------------------------------------------------
  0.10_RM              JUNCTION     9.31     9.97   650.57     0  01:07        9.96
  0.10_UP              JUNCTION     9.22    10.04   650.74     0  01:07       10.03
  0.15_RM              JUNCTION     6.09     7.03   650.93     0  01:07        7.02
  102                  JUNCTION     0.22     3.09   687.59     0  00:20        3.09
  1050                 JUNCTION     1.96     4.90   678.23     0  02:18        4.90
  10SB1                JUNCTION     1.43     5.36   681.90     0  00:35        5.36
  10SB11               JUNCTION     0.12     1.19   693.99     0  00:14        1.19
  10SB14               JUNCTION     0.72     7.73   659.73     0  00:26        7.73
  10SB17               JUNCTION     0.50     6.41   672.44     0  00:25        6.41
  10SB6                JUNCTION     0.68     7.51   688.43     0  00:16        7.46
  1118                 JUNCTION     1.94     9.23   681.13     0  00:41        9.10
  1119                 JUNCTION     1.97     9.28   681.15     0  00:43        9.18
  1120                 JUNCTION     2.00     9.44   681.27     0  00:41        9.30
  1121                 JUNCTION     2.03     9.50   681.30     0  00:41        9.34
  1122                 JUNCTION     2.06     9.54   681.31     0  00:41        9.37
  1123                 JUNCTION     2.09     9.49   681.22     0  00:42        9.37
  1124                 JUNCTION     2.12     9.45   681.15     0  00:42        9.36
  1125                 JUNCTION     2.15     9.45   681.12     0  00:41        9.36
  1126                 JUNCTION     2.18     9.62   681.25     0  00:42        9.49
  1127                 JUNCTION     2.21     9.66   681.26     0  00:42        9.52
  1128                 JUNCTION     1.59     6.82   678.41     0  00:42        6.71
  11SB1                JUNCTION     0.12     0.86   683.99     0  00:21        0.85
  11SB11               JUNCTION     0.08     0.88   695.68     0  00:15        0.88
  11SB14_OF            JUNCTION     4.64     6.92   652.42     0  01:04        6.92
  11SB17               JUNCTION     0.56     7.85   664.87     0  00:41        7.84
  11SB6                JUNCTION     0.79     7.82   691.82     0  00:10        7.78
  12SB1                JUNCTION     0.10     0.78   692.78     0  00:21        0.78
  12SB11               JUNCTION     0.09     0.64   744.94     0  00:21        0.64
  12SB6                JUNCTION     0.19     2.23   692.23     0  00:12        2.16
  13SB1                JUNCTION     0.20     1.40   689.80     0  00:24        1.40
  13SB11               JUNCTION     1.11    11.32   694.12     0  00:26       11.31
  13SB17               JUNCTION     0.91    11.06   664.24     0  00:43       11.05
  13SB6                JUNCTION     0.16     1.39   697.39     0  00:20        1.39
  14SB1                JUNCTION     0.17     1.26   696.26     0  00:22        1.26
  14SB11               JUNCTION     1.06    10.85   699.30     0  00:24       10.85
  14SB17               JUNCTION     0.90    10.31   666.25     0  00:45       10.31
  14SB6                JUNCTION     0.23     1.92   695.92     0  00:20        1.92
  15SB1                JUNCTION     0.41     2.53   681.03     0  00:24        2.53
  15SB11               JUNCTION     1.06    10.94   701.69     0  00:22       10.93
  15SB17               JUNCTION     0.73     7.97   666.97     0  00:35        7.97
  15SB6                JUNCTION     0.33     3.42   703.42     0  00:15        3.42
  16SB1                JUNCTION     1.11     5.24   680.74     0  00:30        5.24
  16SB11               JUNCTION     1.08    11.39   703.54     0  00:15       11.39
  16SB17               JUNCTION     0.08     0.68   669.18     0  00:16        0.67
  16SB6                JUNCTION     0.69     7.69   693.59     0  00:09        7.60
  17SB1                JUNCTION     1.17     4.69   680.10     0  00:31        4.69
  17SB11               JUNCTION     1.03    11.39   704.99     0  00:12       11.38
  17SB17               JUNCTION     0.48     6.09   668.48     0  00:24        6.09
  17SB6                JUNCTION     0.68     8.80   701.80     0  00:07        8.04
  18SB1                JUNCTION     0.23     1.86   682.76     0  00:21        1.86
  18SB17               JUNCTION     0.86     9.70   661.51     0  00:41        9.69
  18SB6                JUNCTION     0.61     9.13   710.13     0  00:08        8.57
  19SB1                JUNCTION     0.09     0.78   683.78     0  00:13        0.78
  19SB17               JUNCTION     2.33     8.09   656.44     0  01:01        8.06
  19SB6                JUNCTION     0.09     0.76   718.76     0  00:17        0.76
  1SB11_OF             JUNCTION     2.31     8.27   658.90     0  01:04        8.27
  1SB14                JUNCTION     0.06     0.63   691.13     0  00:13        0.63
  1SB17_OF             JUNCTION     2.51     6.54   654.50     0  01:05        6.54
  1SB19                JUNCTION     0.13     0.97   670.97     0  00:21        0.96
  1SB20                JUNCTION     0.09     0.72   678.72     0  00:21        0.72
  1SB21                JUNCTION     0.10     0.63   677.63     0  00:15        0.63
  1SB22                JUNCTION     0.11     0.65   679.65     0  00:16        0.64
  1SB23                JUNCTION     0.10     0.87   682.87     0  00:16        0.87
  1SB3_MIL             JUNCTION     0.42     2.69   682.60     0  00:36        2.69
  1SB4                 JUNCTION     0.05     0.60   683.15     0  00:12        0.59
  1SB5                 JUNCTION     0.08     0.81   678.41     0  00:15        0.81
  1SB6_OF              JUNCTION     6.55     8.22   674.20     0  01:01        8.22
  1SB7                 JUNCTION     0.07     0.75   679.16     0  00:14        0.75
  1SB9                 JUNCTION     0.14     2.17   678.27     0  00:15        2.17
  20SB1                JUNCTION     0.14     1.04   689.04     0  00:21        1.04
  20SB6                JUNCTION     0.10     1.02   710.52     0  00:14        1.02
  21SB1                JUNCTION     0.14     1.26   701.76     0  00:16        1.25
  21SB6                JUNCTION     0.07     0.68   710.68     0  00:15        0.68
  22SB1                JUNCTION     0.07     0.66   708.66     0  00:15        0.66
  22SB6                JUNCTION     0.08     0.87   706.87     0  00:15        0.87
  23SB1                JUNCTION     0.10     0.69   705.69     0  00:21        0.68
  23SB6                JUNCTION     0.15     1.64   698.64     0  00:16        1.63
  24SB1                JUNCTION     0.04     0.59   706.59     0  00:12        0.58
  24SB6                JUNCTION     0.11     1.08   717.48     0  00:15        1.08
  25SB1                JUNCTION     0.11     0.83   696.83     0  00:21        0.82
  25SB6                JUNCTION     0.11     1.04   719.84     0  00:15        1.04
  26SB1                JUNCTION     0.06     0.73   697.73     0  00:12        0.72
  26SB6                JUNCTION     0.05     0.57   724.47     0  00:12        0.57
  27SB1                JUNCTION     0.10     1.15   691.15     0  00:12        1.14
  28SB1                JUNCTION     0.13     1.21   689.21     0  00:15        1.21
  29SB1                JUNCTION     0.18     1.55   685.55     0  00:17        1.55
  2SB1                 JUNCTION     0.12     0.72   699.15     0  00:30        0.72
  2SB11                JUNCTION     1.27    12.73   677.18     0  00:36       12.73
  2SB14                JUNCTION     0.21     1.80   685.50     0  00:22        1.79
  2SB17                JUNCTION     0.56     6.05   674.18     0  00:23        6.05
  2SB19                JUNCTION     0.07     0.46   669.77     0  00:30        0.46
  2SB20_OF             JUNCTION    11.94    13.72   674.20     0  01:02       13.71
  2SB21                JUNCTION     4.73     5.71   673.31     0  02:33        5.68
  2SB22                JUNCTION     2.31     3.18   673.28     0  02:35        3.18
  2SB23                JUNCTION     0.09     0.90   678.90     0  00:15        0.90
  2SB2_MIL             JUNCTION     0.73     6.14   681.74     0  00:32        5.86
  2SB3                 JUNCTION     0.73     4.83   681.96     0  00:35        4.83
  2SB4                 JUNCTION     0.11     1.04   679.59     0  00:15        1.04
  2SB5                 JUNCTION     0.07     0.63   678.23     0  00:16        0.62
  2SB6                 JUNCTION     2.34     5.52   676.00     0  00:28        5.50
  2SB7                 JUNCTION     0.05     0.53   678.49     0  00:15        0.53
  2SB9                 JUNCTION     0.10     1.13   668.13     0  00:17        1.13
  30SB1                JUNCTION     0.25     1.97   684.07     0  00:19        1.97
  31SB1                JUNCTION     0.14     0.91   684.91     0  00:22        0.91
  32SB1                JUNCTION     0.27     2.17   680.34     0  00:37        2.17
  33SB1                JUNCTION     0.90     2.91   678.23     0  02:19        2.91
  34SB1                JUNCTION     0.11     0.78   686.78     0  00:21        0.77
  35SB1                JUNCTION     0.20     1.74   681.75     0  00:56        1.74
  36SB1                JUNCTION     0.41     3.24   681.75     0  00:58        3.24
  37SB1                JUNCTION     0.31     2.41   681.75     0  00:57        2.41
  38SB1                JUNCTION     0.12     0.98   683.18     0  00:21        0.97
  39SB1                JUNCTION     0.10     0.89   687.84     0  00:16        0.89
  3SB1                 JUNCTION     0.20     1.48   698.73     0  00:21        1.46
  3SB14                JUNCTION     0.16     1.30   683.30     0  00:23        1.30
  3SB17                JUNCTION     0.15     1.29   676.29     0  00:19        1.29
  3SB19                JUNCTION     0.10     1.05   665.87     0  00:21        1.04
  3SB21                JUNCTION     3.04     3.99   673.34     0  02:33        3.96
  3SB22                JUNCTION     3.75     4.69   673.29     0  02:34        4.68
  3SB23                JUNCTION     0.21     1.75   676.41     0  00:21        1.74
  3SB3                 JUNCTION     0.21     1.40   681.96     0  00:33        1.40
  3SB5                 JUNCTION     0.17     1.44   674.37     0  01:00        1.44
  3SB6                 JUNCTION     0.15     1.63   676.02     0  00:27        1.62
  3SB7                 JUNCTION     0.16     1.42   678.24     0  00:59        1.42
  3SB9                 JUNCTION     0.21     1.56   669.19     0  00:21        1.55
  40SB1                JUNCTION     1.37     3.64   678.64     0  00:31        3.64
  41SB1                JUNCTION     1.75     4.43   678.23     0  02:19        4.43
  42SB1                JUNCTION     2.07     5.37   678.23     0  02:17        5.37
  43SB1                JUNCTION     0.11     0.75   680.15     0  00:12        0.75
  44SB1                JUNCTION     0.10     0.71   681.01     0  00:21        0.70
  45SB1                JUNCTION     0.17     1.15   679.65     0  00:22        1.15
  46SB1                JUNCTION     1.97     5.12   676.63     0  00:56        5.11
  47SB1                JUNCTION     3.14     6.26   676.17     0  00:47        6.25
  48SB1_OF             JUNCTION     3.82     7.15   676.23     0  00:46        7.14
  49SB1                JUNCTION     4.02     5.67   678.29     0  00:44        5.67
  4SB1                 JUNCTION     0.19     1.55   697.11     0  00:21        1.54
  4SB11                JUNCTION     1.41    14.05   682.45     0  00:33       14.05
  4SB14                JUNCTION     0.14     1.17   678.17     0  00:22        1.16
  4SB17                JUNCTION     0.10     1.10   679.10     0  00:13        1.09
  4SB19_OF             JUNCTION     1.77     5.72   664.15     0  01:02        5.70
  4SB21                JUNCTION     5.72     6.70   673.30     0  02:33        6.67
  4SB22_OF             JUNCTION     7.45     9.16   674.20     0  01:02        9.15
  4SB23                JUNCTION     0.08     0.73   676.90     0  00:17        0.73
  4SB3                 JUNCTION     0.07     0.65   684.27     0  00:14        0.64
  4SB5_OF              JUNCTION     5.68     7.48   674.37     0  01:00        7.48
  4SB6                 JUNCTION     0.09     0.72   680.56     0  00:16        0.72
  4SB7                 JUNCTION     0.26     2.63   678.24     0  00:59        2.63
  4SB9                 JUNCTION     0.10     0.85   677.85     0  00:15        0.84
  50SB1                JUNCTION     4.28     5.79   678.26     0  00:44        5.78
  51SB1                JUNCTION     0.13     2.21   677.41     0  00:45        2.19
  52SB1_OF             JUNCTION     3.32     7.58   677.28     0  00:45        7.57
  53SB1_OF             JUNCTION     2.44     7.56   678.26     0  00:44        7.49
  5SB1                 JUNCTION     0.71     2.62   692.04     0  00:30        2.62
  5SB11                JUNCTION     1.16    11.36   686.36     0  00:30       11.36
  5SB14                JUNCTION     0.11     1.02   670.02     0  00:13        1.02
  5SB17                JUNCTION     0.11     0.95   669.05     0  00:20        0.94
  5SB21_OF             JUNCTION     9.45    11.20   674.20     0  01:01       11.19
  5SB23                JUNCTION     0.15     1.22   675.30     0  00:22        1.21
  5SB3                 JUNCTION     0.06     0.64   683.20     0  00:14        0.63
  5SB6                 JUNCTION     0.69     5.46   681.50     0  00:17        5.41
  5SB7_OF              JUNCTION     8.13     9.85   674.20     0  01:00        9.84
  5SB9_OF              JUNCTION     1.65     4.99   661.02     0  01:03        4.98
  6SB1                 JUNCTION     0.05     0.46   704.06     0  00:30        0.46
  6SB11                JUNCTION     0.91    11.06   690.56     0  00:28       11.06
  6SB14                JUNCTION     0.08     0.73   673.73     0  00:15        0.73
  6SB17                JUNCTION     0.32     2.09   668.29     0  00:30        2.09
  6SB3                 JUNCTION     0.07     0.65   680.18     0  00:12        0.65
  745                  JUNCTION     5.80     7.47   674.21     0  01:01        7.46
  747                  JUNCTION     1.43     5.40   664.77     0  01:02        5.37
  751                  JUNCTION     0.54     1.76   673.86     0  01:02        1.75
  754                  JUNCTION     0.48     6.44   686.44     0  00:22        6.43
  756                  JUNCTION     0.51     7.29   686.56     0  00:18        7.24
  757                  JUNCTION     0.68     7.62   689.90     0  00:13        7.56
  758                  JUNCTION     0.73     7.74   690.79     0  00:11        7.49
  7SB1                 JUNCTION     0.79     3.44   687.61     0  00:30        3.43
  7SB11                JUNCTION     0.54     6.92   691.52     0  00:27        6.91
  7SB14                JUNCTION     0.06     0.50   680.50     0  00:21        0.50
  7SB17                JUNCTION     0.09     0.86   669.06     0  00:15        0.86
  7SB3                 JUNCTION     0.70     4.92   679.27     0  00:39        4.92
  7SB6                 JUNCTION     0.42     7.21   686.21     0  00:22        7.17
  800                  JUNCTION     2.97     8.23   658.10     0  01:04        8.23
  802                  JUNCTION     4.73     6.91   652.31     0  01:04        6.89
  818                  JUNCTION     2.64     7.69   678.19     0  00:42        7.58
  822                  JUNCTION     3.82     6.97   676.04     0  00:46        6.96
  824                  JUNCTION     4.31     6.48   674.88     0  00:57        6.47
  8SB1                 JUNCTION     0.22     1.18   683.18     0  00:24        1.18
  8SB11                JUNCTION     0.52     5.06   692.11     0  00:22        5.04
  8SB14                JUNCTION     0.06     0.53   681.53     0  00:18        0.53
  8SB17                JUNCTION     0.09     0.84   671.14     0  00:15        0.84
  8SB3_OF              JUNCTION     2.98     7.54   677.62     0  00:45        7.54
  8SB6                 JUNCTION     0.42     7.46   685.46     0  00:20        7.45
  9SB1                 JUNCTION     1.02     2.41   683.12     0  00:23        2.40
  9SB11                JUNCTION     0.23     1.90   693.40     0  00:23        1.90
  9SB14                JUNCTION     0.19     1.50   669.50     0  00:24        1.50
  9SB17                JUNCTION     0.08     0.78   668.78     0  00:15        0.78
  O.15_UP              JUNCTION     6.04     7.81   651.81     0  01:04        7.76
  SB1018_OF            JUNCTION     1.65     5.91   659.18     0  01:04        5.91
  SB1216_OF            JUNCTION     2.66     6.61   654.41     0  01:05        6.61
  O.O_RM               OUTFALL     12.20    12.20   650.00     0  00:00       12.20
  1SB1                 STORAGE      1.03     4.02   708.47     0  01:13        4.02
  99                   STORAGE      2.84     5.88   687.88     0  00:39        5.87
  
  
  *******************
  Node Inflow Summary
  *******************
  
  -------------------------------------------------------------------------------------------------
                                  Maximum  Maximum                  Lateral       Total        Flow
                                  Lateral    Total  Time of Max      Inflow      Inflow     Balance
                                   Inflow   Inflow   Occurrence      Volume      Volume       Error
  Node                 Type           CFS      CFS  days hr:min    10^6 gal    10^6 gal     Percent
  -------------------------------------------------------------------------------------------------
  0.10_RM              JUNCTION      0.00  1377.65     0  01:05           0        78.8       5.435
  0.10_UP              JUNCTION    190.21  1391.05     0  01:04        4.85          80       1.573
  0.15_RM              JUNCTION      0.00  1326.02     0  01:04           0        75.6       0.556
  102                  JUNCTION   1499.73  1499.73     0  00:20        28.8        28.8       0.013
  1050                 JUNCTION      0.00   437.19     0  00:37           0        21.9       0.092
  10SB1                JUNCTION      0.00   197.22     0  00:28           0        12.7      -0.249
  10SB11               JUNCTION     19.04    37.67     0  00:12       0.357       0.703      -0.284
  10SB14               JUNCTION     16.74   115.48     0  00:22       0.486        2.82      -0.524
  10SB17               JUNCTION      9.34     9.34     0  00:21       0.267       0.267       1.129
  10SB6                JUNCTION     21.37   284.98     0  00:14       0.576        4.18      -0.445
  1118                 JUNCTION      0.00  1961.51     0  00:29           0          33      -0.085
  1119                 JUNCTION      0.00  2026.55     0  00:28           0        30.8       0.007
  1120                 JUNCTION      0.00  2055.51     0  00:28           0        29.2       0.093
  1121                 JUNCTION     36.00  1403.42     0  00:28       0.965        29.7       0.028
  1122                 JUNCTION      0.00  1038.15     0  00:24           0        29.7       0.029
  1123                 JUNCTION      0.00  1110.32     0  00:40           0        29.9       0.032
  1124                 JUNCTION      0.00  1279.93     0  00:32           0        30.1       0.012
  1125                 JUNCTION      0.00  1334.55     0  00:32           0        29.9       0.005
  1126                 JUNCTION      0.00  1603.85     0  00:30           0        29.7       0.115
  1127                 JUNCTION      0.00   890.40     0  00:42           0        29.7       0.030
  1128                 JUNCTION      0.00   840.96     0  00:42           0        29.6       0.007
  11SB1                JUNCTION     15.65    15.65     0  00:21       0.356       0.356      -0.808
  11SB11               JUNCTION     17.75    17.75     0  00:12       0.346       0.346       0.014
  11SB14_OF            JUNCTION     58.10  1301.37     0  01:04        1.54        76.4       0.615
  11SB17               JUNCTION     12.01    12.01     0  00:12       0.228       0.228       0.357
  11SB6                JUNCTION     16.27   445.46     0  00:09       0.372        3.65      -0.262
  12SB1                JUNCTION     12.34    12.34     0  00:21       0.309       0.309      -0.536
  12SB11               JUNCTION     17.74    17.74     0  00:21       0.408       0.408       0.881
  12SB6                JUNCTION     24.55    24.55     0  00:12       0.323       0.323       0.282
  13SB1                JUNCTION     17.63    81.70     0  00:21       0.366        1.96      -0.105
  13SB11               JUNCTION     39.58   265.11     0  00:24       0.821        6.45      -1.528
  13SB17               JUNCTION      2.06    75.45     0  00:47       0.105        2.59      -0.249
  13SB6                JUNCTION     26.90    74.44     0  00:16        0.61         1.5       0.168
  14SB1                JUNCTION     16.28    52.05     0  00:21       0.482        1.29       0.357
  14SB11               JUNCTION     20.65   236.34     0  00:22       0.503        5.66       0.484
  14SB17               JUNCTION      7.24    74.27     0  00:37       0.194        2.25      -0.378
  14SB6                JUNCTION      5.05    34.66     0  00:15       0.166       0.734       0.364
  15SB1                JUNCTION     10.34   217.87     0  00:22       0.209        5.24       0.377
  15SB11               JUNCTION     32.03   234.11     0  00:15       0.756        5.27       2.249
  15SB17               JUNCTION      0.00    65.35     0  00:28           0        1.81       1.103
  15SB6                JUNCTION     30.30    30.30     0  00:15       0.566       0.566      -0.385
  16SB1                JUNCTION      0.00   238.02     0  00:24           0        5.84      -0.115
  16SB11               JUNCTION     52.12   204.30     0  00:15        1.23        4.51      -0.133
  16SB17               JUNCTION      7.93     7.93     0  00:15       0.184       0.184       1.184
  16SB6                JUNCTION     21.81  2160.52     0  00:07       0.428        2.94      -0.618
  17SB1                JUNCTION      0.00   296.77     0  00:31           0        16.3       0.007
  17SB11               JUNCTION    153.29   153.29     0  00:12        3.29        3.29       0.254
  17SB17               JUNCTION      8.94     8.94     0  00:21       0.315       0.315       0.207
  17SB6                JUNCTION     10.76   349.76     0  00:08       0.207        2.06     -18.102
  18SB1                JUNCTION      9.02   135.30     0  00:19       0.172        3.06      -0.118
  18SB17               JUNCTION      0.00    82.19     0  00:47           0        2.91       0.360
  18SB6                JUNCTION     10.14    85.93     0  00:15       0.215        1.66     -10.139
  19SB1                JUNCTION     12.26    12.26     0  00:15       0.266       0.266      -0.527
  19SB17               JUNCTION      0.00   129.30     0  00:23           0        4.12      -0.167
  19SB6                JUNCTION     13.81    13.81     0  00:12       0.242       0.242      -1.949
  1SB11_OF             JUNCTION      0.00   852.38     0  01:04           0        55.4      -0.009
  1SB14                JUNCTION     10.83    10.83     0  00:12       0.184       0.184      -0.804
  1SB17_OF             JUNCTION      0.00  1217.46     0  01:03           0        71.6       0.088
  1SB19                JUNCTION     16.15    16.15     0  00:21       0.375       0.375       0.055
  1SB20                JUNCTION     10.91    10.91     0  00:21       0.252       0.252      -1.405
  1SB21                JUNCTION     10.99    10.99     0  00:15       0.194       0.194     -21.248
  1SB22                JUNCTION     10.60    10.60     0  00:15       0.224       0.224     -13.740
  1SB23                JUNCTION     20.14    20.14     0  00:15       0.419       0.419      -0.646
  1SB3_MIL             JUNCTION     19.60    19.60     0  00:10        1.41        1.41      -0.053
  1SB4                 JUNCTION      8.27     8.27     0  00:12       0.122       0.122      -0.414
  1SB5                 JUNCTION     15.42    15.42     0  00:15       0.286       0.286      -1.055
  1SB6_OF              JUNCTION      0.00  1146.38     0  00:37           0        63.8       1.985
  1SB7                 JUNCTION     12.37    12.37     0  00:12       0.245       0.245      -0.456
  1SB9                 JUNCTION     18.25    18.25     0  00:15       0.412       0.412      -0.097
  20SB1                JUNCTION     21.36    35.06     0  00:15       0.427       0.894      -0.218
  20SB6                JUNCTION     11.19    11.19     0  00:12       0.177       0.177      -1.048
  21SB1                JUNCTION     22.72    36.43     0  00:15       0.527       0.807      -0.437
  21SB6                JUNCTION     12.48    12.48     0  00:15       0.234       0.234      -0.030
  22SB1                JUNCTION     13.81    13.81     0  00:15        0.28        0.28      -0.177
  22SB6                JUNCTION     15.91    28.24     0  00:15       0.282       0.516      -0.056
  23SB1                JUNCTION     15.64    15.64     0  00:21       0.468       0.468       0.102
  23SB6                JUNCTION     20.96    49.12     0  00:15       0.371       0.887      -0.110
  24SB1                JUNCTION     14.04    14.04     0  00:12       0.196       0.196      -0.028
  24SB6                JUNCTION     25.79    53.56     0  00:15       0.493        1.02      -0.101
  25SB1                JUNCTION     23.29    23.29     0  00:21       0.585       0.585      -0.083
  25SB6                JUNCTION     19.74    27.90     0  00:15       0.391       0.528       0.044
  26SB1                JUNCTION     11.53    25.47     0  00:12       0.197       0.393       0.008
  26SB6                JUNCTION      8.40     8.40     0  00:12       0.137       0.137      -0.163
  27SB1                JUNCTION     13.97    39.27     0  00:12       0.245       0.638      -0.010
  28SB1                JUNCTION     20.81    58.24     0  00:15       0.507        1.14      -0.066
  29SB1                JUNCTION      0.00    80.31     0  00:15           0        1.73       0.023
  2SB1                 JUNCTION      5.27     5.27     0  00:30       0.217       0.217       0.081
  2SB11                JUNCTION     79.78   439.81     0  00:32         1.8        12.1       0.637
  2SB14                JUNCTION     32.21    42.67     0  00:15       0.705        0.89      -0.215
  2SB17                JUNCTION     21.06    57.21     0  00:20       0.509        1.21      -0.494
  2SB19                JUNCTION      3.36     3.36     0  00:30       0.113       0.113       0.030
  2SB20_OF             JUNCTION     18.61   943.60     0  01:00        0.33        57.7       4.245
  2SB21                JUNCTION      6.67    91.47     0  01:08       0.207        2.89      20.720
  2SB22                JUNCTION      5.37    10.59     0  01:49       0.196       0.364      25.011
  2SB23                JUNCTION     17.41    17.41     0  00:12       0.318       0.318      -0.909
  2SB2_MIL             JUNCTION      0.00  1458.50     0  00:29           0        31.5       0.155
  2SB3                 JUNCTION      8.37    52.55     0  00:14       0.132        1.95       0.275
  2SB4                 JUNCTION      5.08    13.20     0  00:12       0.084       0.207       0.345
  2SB5                 JUNCTION      8.67     8.67     0  00:15       0.185       0.185      -0.782
  2SB6                 JUNCTION      0.00   391.93     0  00:21           0        7.75       1.619
  2SB7                 JUNCTION      4.54     4.54     0  00:15      0.0815      0.0815      -0.676
  2SB9                 JUNCTION      0.00    51.22     0  00:15           0        1.28      -0.325
  30SB1                JUNCTION      0.00   112.83     0  00:18           0        2.63       0.156
  31SB1                JUNCTION     21.95    21.95     0  00:21       0.621       0.621       0.427
  32SB1                JUNCTION      9.30   109.33     0  00:34       0.235        2.56       0.415
  33SB1                JUNCTION     11.32   144.30     0  00:37       0.227        4.35      -2.488
  34SB1                JUNCTION     18.64    18.64     0  00:21       0.471       0.471       0.548
  35SB1                JUNCTION     14.94    14.94     0  00:15       0.293       0.293      -1.248
  36SB1                JUNCTION      0.00    44.04     0  00:15           0        1.11       0.687
  37SB1                JUNCTION      9.54    35.15     0  00:17       0.172       0.815       0.240
  38SB1                JUNCTION      7.22    27.18     0  00:21       0.185        0.64      -0.363
  39SB1                JUNCTION     20.07    20.07     0  00:15       0.455       0.455      -0.162
  3SB1                 JUNCTION     12.90    18.18     0  00:20       0.328       0.545      -0.024
  3SB14                JUNCTION     13.73    49.61     0  00:21        0.28        1.17       0.487
  3SB17                JUNCTION     16.24    38.29     0  00:15       0.345       0.706       0.820
  3SB19                JUNCTION      0.00    19.10     0  00:21           0       0.487       0.111
  3SB21                JUNCTION      5.45   124.14     0  01:02       0.159        4.53       4.658
  3SB22                JUNCTION      0.00    70.38     0  01:09           0        2.04      50.996
  3SB23                JUNCTION     16.80    47.33     0  00:16       0.306       0.844       0.414
  3SB3                 JUNCTION      9.67    26.49     0  00:14        0.13       0.405       0.433
  3SB5                 JUNCTION      0.00    26.41     0  00:49           0       0.488       1.224
  3SB6                 JUNCTION     10.81    35.71     0  00:22       0.213       0.469       0.860
  3SB7                 JUNCTION      4.54    22.25     0  00:14       0.093       0.421      -0.141
  3SB9                 JUNCTION     11.10    34.58     0  00:15        0.26       0.871       0.283
  40SB1                JUNCTION     32.25   320.20     0  00:30         0.7          17      -0.561
  41SB1                JUNCTION     12.56   466.66     0  00:37       0.454          22       0.372
  42SB1                JUNCTION      0.00   280.98     0  00:32           0        22.2       0.858
  43SB1                JUNCTION     13.39    13.39     0  00:15       0.252       0.252     -19.675
  44SB1                JUNCTION      9.73     9.73     0  00:21       0.275       0.275      -0.067
  45SB1                JUNCTION     11.51    21.73     0  00:21       0.247       0.523       0.104
  46SB1                JUNCTION     14.29    97.03     0  02:32        0.31        22.8       0.014
  47SB1                JUNCTION      0.00    97.10     0  02:29           0        22.8       0.086
  48SB1_OF             JUNCTION      0.00   839.28     0  00:45           0        32.6       0.236
  49SB1                JUNCTION     21.78    21.78     0  00:12       0.529       0.529       1.005
  4SB1                 JUNCTION     15.77    33.40     0  00:21       0.459           1      -0.054
  4SB11                JUNCTION     32.52   393.57     0  00:30       0.726        10.3      -0.316
  4SB14                JUNCTION     15.57    61.03     0  00:21        0.26        1.43      -0.094
  4SB17                JUNCTION     20.76    20.76     0  00:12       0.356       0.356      -1.382
  4SB19_OF             JUNCTION      7.47   823.87     0  01:02       0.108        53.2       0.021
  4SB21                JUNCTION      0.00   164.00     0  01:02           0        5.43      33.780
  4SB22_OF             JUNCTION      0.00  1030.54     0  00:53           0        62.9       2.440
  4SB23                JUNCTION      9.99     9.99     0  00:15       0.216       0.216      -0.403
  4SB3                 JUNCTION      7.81     7.81     0  00:15       0.145       0.145      -1.287
  4SB5_OF              JUNCTION     11.61   939.69     0  00:44        0.15        56.9       0.328
  4SB6                 JUNCTION     10.94    10.94     0  00:15       0.248       0.248      -0.447
  4SB7                 JUNCTION      0.00    23.87     0  00:15           0       0.422       0.751
  4SB9                 JUNCTION     24.19    24.19     0  00:12        0.61        0.61      -0.264
  50SB1                JUNCTION      0.00    20.34     0  00:21           0       0.523       0.209
  51SB1                JUNCTION      5.76     5.76     0  00:12      0.0715       0.072       0.795
  52SB1_OF             JUNCTION      0.00   844.30     0  00:43           0        32.4       0.128
  53SB1_OF             JUNCTION      0.00   870.84     0  00:40           0        30.1       0.037
  5SB1                 JUNCTION     30.55   115.52     0  00:30       0.696        10.8       0.014
  5SB11                JUNCTION     28.33   285.67     0  00:26       0.567        7.12       0.026
  5SB14                JUNCTION      4.48    20.48     0  00:21       0.131       0.488      -0.243
  5SB17                JUNCTION     18.47    18.47     0  00:15       0.407       0.407      -1.194
  5SB21_OF             JUNCTION      0.00   993.67     0  00:57           0        60.7       6.182
  5SB23                JUNCTION      0.00    58.86     0  00:21           0        1.26       0.335
  5SB3                 JUNCTION      7.58     7.58     0  00:12       0.126       0.126      -1.661
  5SB6                 JUNCTION     13.02   344.69     0  00:21       0.244        7.18      -1.295
  5SB7_OF              JUNCTION     17.39   988.78     0  00:58       0.263        62.1       3.519
  5SB9_OF              JUNCTION      0.00   847.18     0  01:02           0        54.5       0.065
  6SB1                 JUNCTION      9.41     9.41     0  00:21       0.273       0.273      -0.005
  6SB11                JUNCTION     21.44    98.49     0  00:26       0.605        2.41       0.156
  6SB14                JUNCTION     10.78    16.64     0  00:15       0.181       0.357      -0.023
  6SB17                JUNCTION     12.73    68.67     0  00:15       0.251        1.41       0.926
  6SB3                 JUNCTION      9.09     9.09     0  00:12       0.163       0.163      -2.309
  745                  JUNCTION      0.00   938.91     0  00:44           0        56.7       0.917
  747                  JUNCTION      0.00   813.10     0  01:02           0        52.6       0.005
  751                  JUNCTION      0.00   121.90     0  01:02           0        3.84      -0.575
  754                  JUNCTION      0.00    72.86     0  00:20           0         1.5       0.061
  756                  JUNCTION      0.00   267.75     0  00:16           0        4.93      -0.221
  757                  JUNCTION      0.00   320.01     0  00:12           0        3.64       1.124
  758                  JUNCTION      0.00   354.86     0  00:10           0        3.66       0.603
  7SB1                 JUNCTION     19.06   140.74     0  00:30       0.447        11.5       0.009
  7SB11                JUNCTION     16.05    83.53     0  00:23       0.284        1.82       0.539
  7SB14                JUNCTION      6.68     6.68     0  00:21       0.176       0.176       0.037
  7SB17                JUNCTION     16.37    16.37     0  00:15       0.353       0.353      -0.702
  7SB3                 JUNCTION      0.00    41.72     0  00:31           0        2.11       0.201
  7SB6                 JUNCTION      8.55    80.95     0  00:20       0.184        1.68      -0.362
  800                  JUNCTION      0.00  1122.62     0  01:03           0        67.4      -0.107
  802                  JUNCTION      0.00  1320.23     0  01:05           0        75.9       0.221
  818                  JUNCTION      0.00   849.67     0  00:42           0        30.1       0.079
  822                  JUNCTION      0.00   894.88     0  00:45           0        55.3       0.137
  824                  JUNCTION      0.00   891.64     0  00:46           0        55.2       0.311
  8SB1                 JUNCTION     13.55    13.55     0  00:15       0.404       0.404      -1.330
  8SB11                JUNCTION     14.41    68.70     0  00:21       0.186        1.54       0.190
  8SB14                JUNCTION      7.96     7.96     0  00:12       0.124       0.124       4.661
  8SB17                JUNCTION     17.35    17.35     0  00:15       0.393       0.393      -0.797
  8SB3_OF              JUNCTION      9.63   858.43     0  00:42       0.178        32.4       0.096
  8SB6                 JUNCTION     11.27   351.63     0  00:18       0.302        6.92      -0.234
  9SB1                 JUNCTION     15.86   164.81     0  00:30       0.462        12.4       0.129
  9SB11                JUNCTION     10.70    50.66     0  00:14       0.244       0.949       0.309
  9SB14                JUNCTION     15.72    94.89     0  00:21         0.3        2.22       0.131
  9SB17                JUNCTION     11.41    11.41     0  00:12       0.235       0.235       1.201
  O.15_UP              JUNCTION      0.00  1317.08     0  01:04           0        75.8       0.275
  SB1018_OF            JUNCTION     73.25   855.29     0  01:03       0.952        55.4       0.040
  SB1216_OF            JUNCTION     42.67  1223.13     0  01:04       0.708        72.2       0.221
  O.O_RM               OUTFALL       0.00  1368.09     0  01:07           0        74.7       0.000
  1SB1                 STORAGE     633.88   633.88     0  00:15        9.41        9.41       0.017
  99                   STORAGE       0.00   466.01     0  00:26           0        4.71      -0.116
  
  
  **********************
  Node Surcharge Summary
  **********************
  
  No nodes were surcharged.
  
  
  *********************
  Node Flooding Summary
  *********************
  
  No nodes were flooded.
  
  
  **********************
  Storage Volume Summary
  **********************
  
  --------------------------------------------------------------------------------------------------
                         Average     Avg  Evap Exfil       Maximum     Max    Time of Max    Maximum
                          Volume    Pcnt  Pcnt  Pcnt        Volume    Pcnt     Occurrence    Outflow
  Storage Unit          1000 ft3    Full  Loss  Loss      1000 ft3    Full    days hr:min        CFS
  --------------------------------------------------------------------------------------------------
  1SB1                   232.734       1     0     0       953.800       6       0  01:13      63.56
  99                     246.485      27     0     0       610.659      68       0  00:39      11.12
  
  
  ***********************
  Outfall Loading Summary
  ***********************
  
  -----------------------------------------------------------
                         Flow       Avg       Max       Total
                         Freq      Flow      Flow      Volume
  Outfall Node           Pcnt       CFS       CFS    10^6 gal
  -----------------------------------------------------------
  O.O_RM                97.54    152.45   1368.09      74.688
  -----------------------------------------------------------
  System                97.54    152.45   1368.09      74.688
  
  
  ********************
  Link Flow Summary
  ********************
  
  -----------------------------------------------------------------------------
                                 Maximum  Time of Max   Maximum    Max/    Max/
                                  |Flow|   Occurrence   |Veloc|    Full    Full
  Link                 Type          CFS  days hr:min    ft/sec    Flow   Depth
  -----------------------------------------------------------------------------
  583                  CHANNEL     12.37     0  00:17      3.34    0.00    0.07
  591                  CHANNEL      8.29     0  00:12      1.99    0.00    0.07
  592                  CHANNEL     27.80     0  00:15      3.73    0.00    0.09
  593                  CHANNEL     53.23     0  00:15      6.90    0.00    0.09
  594                  CHANNEL     47.94     0  00:16      3.49    0.00    0.13
  595                  CHANNEL     28.17     0  00:15      2.86    0.00    0.10
  596                  CHANNEL     12.45     0  00:15      3.14    0.00    0.06
  597                  CHANNEL     30.03     0  00:15      5.39    0.01    0.18
  598                  CHANNEL     33.28     0  00:20      4.26    0.01    0.18
  601                  CHANNEL     28.34     0  00:13      4.17    0.01    0.23
  602                  CHANNEL     72.86     0  00:20      5.81    0.00    0.12
  604                  CHANNEL    369.99     0  00:21     10.63    0.08    0.53
  606                  CHANNEL     11.50     0  00:17      2.45    0.00    0.10
  607                  CHANNEL     26.49     0  00:27      3.44    0.00    0.17
  608                  CHANNEL     23.81     0  00:15      3.65    0.00    0.10
  609                  CHANNEL     33.53     0  00:21      2.85    0.00    0.11
  610                  CONDUIT     51.06     0  00:17      5.29    0.05    0.58
  612                  CHANNEL     12.66     0  00:14      2.91    0.00    0.08
  613                  CHANNEL     23.87     0  00:15      2.99    0.00    0.17
  615                  CHANNEL      5.43     0  00:16      1.52    0.00    0.07
  616                  CHANNEL     15.92     0  00:21      3.06    0.00    0.07
  618                  CHANNEL      3.31     0  00:30      2.51    0.00    0.04
  619                  CHANNEL     10.85     0  00:21      4.51    0.00    0.09
  620                  CHANNEL     10.89     0  00:15      4.51    0.00    0.29
  622                  CHANNEL    124.64     0  01:19      3.46    0.00    0.44
  623                  CHANNEL     88.34     0  01:08      2.40    0.00    0.52
  624                  CHANNEL     10.44     0  00:16      4.09    0.00    0.20
  626                  CHANNEL      9.27     0  01:49      3.08    0.00    0.33
  627                  CHANNEL     19.85     0  00:16      4.86    0.00    0.09
  628                  CHANNEL     58.59     0  00:22      6.03    0.00    0.15
  629                  CHANNEL     20.15     0  00:16      2.47    0.00    0.11
  630                  CHANNEL     39.32     0  00:21      2.73    0.00    0.12
  631                  CHANNEL     11.93     0  00:17      1.83    0.00    0.10
  632                  CHANNEL     15.83     0  00:15      4.10    0.00    0.08
  633                  CHANNEL     23.11     0  00:18      3.84    0.00    0.18
  634                  CHANNEL      8.59     0  00:16      3.60    0.00    0.08
  712                  CHANNEL    821.89     0  01:02      7.54    0.03    0.24
  713                  CHANNEL    846.44     0  01:03      6.36    0.02    0.22
  714                  CHANNEL    852.38     0  01:04      4.12    0.02    0.26
  748                  CHANNEL    813.25     0  01:02      5.40    0.03    0.28
  750                  CHANNEL     67.05     0  01:22      2.32    0.00    0.43
  753                  CHANNEL    117.38     0  01:02      2.09    0.00    0.20
  762                  CHANNEL     10.51     0  00:14      2.51    0.00    0.09
  635                  CHANNEL      8.14     0  00:12      3.10    0.00    0.07
  636                  CHANNEL     12.66     0  00:15      2.41    0.00    0.07
  637                  CHANNEL      8.92     0  00:12      2.71    0.00    0.14
  641                  CHANNEL      9.04     0  00:14      2.15    0.00    0.08
  642                  CHANNEL     25.39     0  00:14      2.37    0.00    0.18
  643                  CHANNEL      8.66     0  00:14      2.09    0.00    0.08
  644                  CONDUIT     63.56     0  01:13      9.45    1.09    1.00
  647                  CHANNEL    183.33     0  00:28      2.73    0.01    0.21
  650                  CHANNEL    319.76     0  00:32      2.08    0.04    0.26
  655                  CONDUIT      5.65     0  00:30      2.40    0.11    0.31
  656                  CONDUIT     17.70     0  00:21      4.44    0.38    0.43
  657                  CONDUIT     33.28     0  00:21      6.85    0.40    0.58
  658                  CHANNEL     14.23     0  00:17      2.35    0.00    0.09
  659                  CHANNEL     77.27     0  00:24      2.54    0.00    0.16
  660                  CHANNEL    216.37     0  00:24      3.74    0.01    0.21
  662                  CHANNEL     13.74     0  00:15      3.52    0.00    0.08
  663                  CHANNEL     36.31     0  00:18      3.67    0.00    0.10
  664                  CHANNEL     51.44     0  00:22      4.51    0.00    0.11
  665                  CHANNEL     15.48     0  00:21      3.16    0.00    0.07
  666                  CHANNEL     34.80     0  00:21      4.52    0.00    0.13
  667                  CHANNEL     13.96     0  00:12      4.78    0.00    0.06
  668                  CHANNEL     25.36     0  00:12      4.39    0.00    0.08
  669                  CHANNEL     39.02     0  00:12      4.35    0.00    0.10
  670                  CHANNEL     58.17     0  00:15      5.86    0.00    0.11
  671                  CHANNEL     78.22     0  00:17      4.44    0.00    0.15
  672                  CHANNEL    112.64     0  00:20      4.36    0.00    0.16
  673                  CHANNEL    132.65     0  00:21      4.67    0.00    0.18
  674                  CHANNEL     23.17     0  00:21      4.27    0.00    0.10
  675                  CHANNEL     14.32     0  00:14      2.39    0.00    0.11
  676                  CONDUIT      8.73     0  00:30      3.13    0.00    0.09
  677                  CHANNEL     14.04     0  00:26      1.81    0.00    0.15
  678                  CHANNEL     17.94     0  00:22      3.28    0.00    0.15
  679                  CHANNEL     21.72     0  00:22      3.74    0.00    0.14
  680                  CHANNEL     20.07     0  00:17      3.57    0.00    0.08
  681                  CHANNEL     26.85     0  00:21      3.33    0.00    0.13
  682                  CHANNEL     29.41     0  00:18      2.34    0.00    0.24
  684                  CHANNEL    141.19     0  00:39      1.19    0.06    0.73
  685                  CHANNEL     17.24     0  00:14      3.06    0.00    0.21
  686                  CHANNEL    102.44     0  00:37      3.27    0.01    0.16
  687                  CHANNEL     18.43     0  00:21      4.60    0.00    0.06
  688                  CHANNEL      0.00     0  00:00      0.00    0.00    0.00
  690                  CHANNEL      0.00     0  00:00      0.00    0.00    0.03
  694                  CHANNEL     13.28     0  00:15      4.97    0.00    0.23
  695                  CHANNEL     11.07     0  00:21      2.06    0.00    0.08
  696                  CHANNEL     20.05     0  00:21      2.92    0.00    0.09
  702                  CHANNEL    814.05     0  00:42      4.36    0.11    0.42
  703                  CHANNEL    842.87     0  00:43      4.53    0.09    0.42
  704                  CHANNEL    834.32     0  00:45      5.28    0.11    0.38
  705                  CHANNEL    891.64     0  00:46      5.13    0.08    0.32
  825                  CHANNEL    888.28     0  00:44      7.31    0.04    0.32
  826                  CHANNEL    102.05     0  00:36      3.71    0.00    0.16
  536                  CHANNEL     22.24     0  00:16      2.15    0.00    0.12
  537                  CHANNEL     48.93     0  00:30      2.48    0.00    0.14
  543                  CHANNEL     17.23     0  00:15      3.47    0.00    0.12
  544                  CHANNEL     11.22     0  00:14      3.05    0.00    0.07
  548                  CHANNEL     18.11     0  00:17      2.96    0.00    0.12
  549                  CHANNEL      8.14     0  00:21      2.82    0.00    0.07
  551                  CHANNEL     22.11     0  00:15      2.54    0.00    0.10
  552                  CHANNEL     36.27     0  00:19      3.79    0.00    0.10
  557                  CHANNEL     10.65     0  00:13      1.91    0.00    0.10
  558                  CHANNEL     37.31     0  00:22      2.46    0.00    0.13
  559                  CHANNEL     48.67     0  00:23      4.92    0.00    0.10
  560                  CHANNEL     60.68     0  00:22      5.27    0.00    0.11
  561                  CHANNEL     92.65     0  00:23      6.42    0.00    0.12
  563                  CHANNEL      6.89     0  00:18      3.61    0.00    0.05
  564                  CHANNEL      6.63     0  00:21      2.82    0.00    0.05
  565                  CHANNEL     16.55     0  00:15      3.39    0.00    0.07
  566                  CHANNEL     20.99     0  00:16      2.35    0.00    0.10
  571                  CHANNEL     19.01     0  00:13      2.82    0.00    0.09
  572                  CHANNEL     40.06     0  00:14      3.06    0.00    0.13
  573                  CHANNEL     41.21     0  00:23      2.58    0.00    0.13
  582                  CHANNEL     17.54     0  00:21      5.54    0.00    0.07
  717                  CHANNEL   1222.93     0  01:06      4.41    0.23    0.50
  801                  CHANNEL   1122.58     0  01:04      7.34    0.08    0.34
  0.06_NAT             CHANNEL   1368.09     0  01:07      0.74    0.03    0.35
  1087                 CHANNEL    121.17     0  01:02      6.20    0.00    0.21
  1051                 CHANNEL    437.19     0  00:37      1.96    0.01    0.29
  817pipe              CONDUIT     34.87     0  00:16      7.29    1.08    1.00
  817chan              CHANNEL    309.49     0  00:08      4.83    0.01    0.14
  816pipe              CONDUIT     23.62     0  00:08      7.52    1.12    1.00
  816chan              CHANNEL   2125.81     0  00:07     15.40    0.05    0.19
  815pipe1             CONDUIT     14.05     0  00:08      4.47    1.14    1.00
  815chan              CHANNEL    383.81     0  00:09      6.12    0.02    0.15
  815pipe2             CONDUIT     15.06     0  00:08      4.79    1.14    1.00
  814pipe              CONDUIT     22.33     0  00:07      7.11    2.34    1.00
  814chan              CHANNEL    343.92     0  00:10      3.94    0.02    0.16
  810pipe1             CONDUIT    104.70     0  00:12      8.33    1.73    1.00
  810chan              CHANNEL    179.57     0  00:18      3.67    0.01    0.12
  810pipe2             CONDUIT     46.05     0  00:12      6.52    1.75    1.00
  789pipe              CONDUIT    297.27     0  00:22     23.66    1.48    1.00
  789of                CONDUIT     36.92     0  00:20      5.01    0.06    0.26
  803pipe              CONDUIT     51.68     0  00:40      7.31    1.51    1.00
  803chan              CHANNEL     48.41     0  00:22      3.59    0.00    0.12
  805pipe1             CONDUIT     89.53     0  00:31     13.08    1.10    1.00
  805pipe2             CONDUIT    220.89     0  00:28     14.47    1.13    1.00
  805of                CONDUIT      8.94     0  00:28      3.12    0.01    0.29
  830pipe              CONDUIT     11.39     0  00:15     10.73    1.08    1.00
  830of                CONDUIT      6.82     0  00:15      7.37    0.00    0.03
  831pipe              CONDUIT     13.27     0  00:14     11.82    1.06    1.00
  831of                CONDUIT      0.00     0  00:00      0.00    0.00    0.66
  827pipe              CONDUIT     19.10     0  00:21     11.47    0.54    1.00
  827of                CONDUIT      0.00     0  00:00      0.00    0.00    0.21
  826pipe              CONDUIT     18.75     0  00:17      8.82    1.08    1.00
  826of                CONDUIT     36.88     0  01:01      3.34    0.02    0.28
  825pipe              CONDUIT      5.54     0  00:17      5.96    0.48    1.00
  825of                CONDUIT      3.50     0  01:02      0.81    0.00    0.14
  51OVRFLW             CHANNEL      0.00     0  00:00      0.00    0.00    0.00
  51_7x10_1            CONDUIT    469.46     0  00:44     10.83    1.25    1.00
  51_7x10_2            CONDUIT    469.46     0  00:44     10.83    1.25    1.00
  707_modify           CHANNEL   1030.54     0  00:53      6.64    0.01    0.36
  708_modify           CHANNEL    976.09     0  00:58      3.26    0.01    0.38
  709_modify           CHANNEL    993.67     0  00:57      5.46    0.01    0.42
  710_modify           CHANNEL    938.36     0  01:00      2.13    0.01    0.46
  47PIPE               CONDUIT      4.73     0  00:43      6.02    3.56    1.00
  47OVRFLW             CHANNEL    808.81     0  01:02      3.05    0.03    0.09
  746_modify           CHANNEL    869.66     0  00:43      2.84    0.01    0.33
  804pipe              CONDUIT     34.05     0  00:53      6.94    1.83    1.00
  804chan              CHANNEL     62.72     0  00:22      3.40    0.00    0.16
  813pipe              CONDUIT     40.24     0  00:08      8.20    2.32    1.00
  813chan              CHANNEL    299.42     0  00:12     37.86    0.02    0.15
  812pipe              CONDUIT     52.65     0  00:09      7.45    1.87    1.00
  812chan              CHANNEL    235.46     0  00:14      3.59    0.01    0.13
  811pipe              CONDUIT     76.15     0  00:11      7.92    1.80    1.00
  811chan              CHANNEL    188.67     0  00:16      3.43    0.01    0.12
  838of                CHANNEL     24.01     0  00:39      4.11    0.00    0.10
  838pip               CONDUIT     25.25     0  00:19      8.04    1.45    1.00
  839chan              CHANNEL     11.16     0  00:36      0.65    0.00    0.15
  839pipe              CONDUIT     16.61     0  00:06      5.91    0.95    1.00
  838chan              CHANNEL     18.42     0  00:35      4.02    0.00    0.07
  838pipe              CONDUIT     21.04     0  02:38      6.70    1.21    1.00
  36inch_1             CONDUIT     40.80     0  00:22      6.13    1.02    1.00
  54inch_1             CONDUIT     79.99     0  00:30      7.03    0.68    0.67
  36inch_2             CONDUIT     44.24     0  00:31      6.40    1.20    0.96
  54inch_2             CONDUIT     94.07     0  00:30      8.85    0.87    0.64
  848pipe              CONDUIT     74.63     0  01:16      7.76    1.56    1.00
  848chan              CONDUIT     18.82     0  00:35      3.94    0.02    0.15
  849_1                CONDUIT    147.94     0  00:31      8.46    1.59    0.83
  849_2                CONDUIT    147.94     0  00:31      8.46    1.59    0.83
  849_trap             CONDUIT      0.89     0  00:31      1.15    0.00    0.03
  853pipe              CONDUIT     11.22     0  00:08      2.31    1.14    1.00
  853of                CHANNEL     11.37     0  00:21      0.78    0.01    0.16
  854of                CHANNEL     22.28     0  00:27      1.77    0.01    0.18
  861_1                CONDUIT    106.10     0  00:27      8.44    2.79    1.00
  861_2                CONDUIT    106.10     0  00:27      8.44    2.79    1.00
  861_trap             CONDUIT      9.56     0  00:30      3.21    0.01    0.10
  883culv              CONDUIT     19.57     0  00:49      6.23    1.18    1.00
  883of                CHANNEL      2.40     0  00:58      1.42    0.00    0.12
  889pipe              CONDUIT      5.73     0  00:12      6.92    0.74    1.00
  889chan              CHANNEL      0.00     0  00:00      0.00    0.00    0.14
  691pipe              CONDUIT     97.26     0  02:29      5.57    0.84    1.00
  691chan              CHANNEL     12.00     0  00:49      1.58    0.00    0.09
  892pipe              CONDUIT     95.98     0  03:01      7.64    1.50    1.00
  892chan              CHANNEL      0.00     0  00:00      0.00    0.00    0.00
  893pipe              CONDUIT     97.10     0  02:29      6.09    0.84    1.00
  893chan              CHANNEL      0.00     0  00:00      0.00    0.00    0.03
  55_OVRFLW            CHANNEL      0.00     0  00:00      0.00    0.00    0.02
  55_5x12_1            CONDUIT    424.84     0  00:42      7.08    0.85    1.00
  55_5x12_2            CONDUIT    424.84     0  00:42      7.08    0.85    1.00
  53_#7TRP             CONDUIT    838.78     0  00:45      3.12    0.33    0.35
  708pipe              CONDUIT     48.31     0  00:14      6.84    1.37    1.00
  708chan              CHANNEL     41.05     0  00:38      1.95    0.00    0.09
  706pipe              CONDUIT     60.40     0  01:10      6.28    1.39    1.00
  706chan              CHANNEL     19.95     0  00:45      1.68    0.00    0.06
  704pipe              CONDUIT     75.46     0  00:47      7.84    1.47    1.00
  704chan              CHANNEL      0.00     0  00:00      0.00    0.00    0.00
  702pipe              CONDUIT     82.20     0  00:47      8.54    1.60    1.00
  702chan              CHANNEL      0.00     0  00:00      0.00    0.00    0.00
  700pipe              CONDUIT    129.28     0  00:23     10.29    3.05    1.00
[...]
  572                     1.00   0.00  0.00  0.00  1.00  0.00  0.00  0.00  0.93  0.00
  573                     1.00   0.00  0.00  0.00  0.00  0.00  0.00  1.00  0.00  0.00
  582                     1.00   0.00  0.00  0.00  0.06  0.01  0.00  0.92  0.04  0.00
  717                     1.00   0.00  0.00  0.00  1.00  0.00  0.00  0.00  0.00  0.00
  801                     1.00   0.00  0.00  0.00  1.00  0.00  0.00  0.00  0.00  0.00
  0.06_NAT                1.00   0.00  0.00  0.00  1.00  0.00  0.00  0.00  0.00  0.00
  1087                    1.00   0.00  0.00  0.00  0.97  0.03  0.00  0.00  0.08  0.00
  1051                    1.00   0.00  0.00  0.00  1.00  0.00  0.00  0.00  0.00  0.00
  817pipe                 1.00   0.00  0.00  0.00  0.93  0.07  0.00  0.00  0.18  0.00
  817chan                 1.00   0.92  0.02  0.00  0.04  0.01  0.00  0.00  0.99  0.00
  816pipe                 1.00   0.00  0.00  0.00  0.77  0.23  0.00  0.00  0.19  0.00
  816chan                 1.00   0.91  0.01  0.00  0.08  0.00  0.00  0.00  0.99  0.00
  815pipe1                1.00   0.00  0.00  0.00  1.00  0.00  0.00  0.00  0.36  0.00
  815chan                 1.00   0.90  0.01  0.00  0.08  0.00  0.00  0.00  0.96  0.00
  815pipe2                1.00   0.00  0.00  0.00  1.00  0.00  0.00  0.00  0.81  0.00
  814pipe                 1.00   0.00  0.00  0.00  1.00  0.00  0.00  0.00  0.00  0.00
  814chan                 1.00   0.90  0.00  0.00  0.08  0.00  0.00  0.02  0.00  0.00
  810pipe1                1.00   0.00  0.00  0.00  1.00  0.00  0.00  0.00  0.00  0.00
  810chan                 1.00   0.97  0.00  0.00  0.01  0.00  0.00  0.02  0.00  0.00
  810pipe2                1.00   0.00  0.00  0.00  1.00  0.00  0.00  0.00  0.00  0.00
  789pipe                 1.00   0.00  0.00  0.00  0.96  0.04  0.00  0.00  0.97  0.00
  789of                   1.00   0.98  0.00  0.00  0.00  0.00  0.00  0.02  0.00  0.00
  803pipe                 1.00   0.00  0.00  0.00  1.00  0.00  0.00  0.00  0.04  0.00
  803chan                 1.00   0.97  0.00  0.00  0.00  0.00  0.00  0.03  0.00  0.00
  805pipe1                1.00   0.00  0.00  0.00  0.99  0.01  0.00  0.00  0.00  0.00
  805pipe2                1.00   0.00  0.00  0.00  0.97  0.00  0.00  0.03  0.00  0.00
  805of                   1.00   0.02  0.93  0.00  0.04  0.00  0.00  0.02  0.97  0.00
  830pipe                 1.00   0.00  0.71  0.00  0.05  0.24  0.00  0.00  0.78  0.00
  830of                   1.00   0.97  0.00  0.00  0.00  0.00  0.00  0.03  0.00  0.00
  831pipe                 1.00   0.00  0.00  0.00  0.99  0.01  0.00  0.00  0.93  0.00
  831of                   1.00   0.02  0.98  0.00  0.00  0.00  0.00  0.00  0.00  0.00
  827pipe                 1.00   0.00  0.00  0.00  0.45  0.00  0.00  0.54  0.48  0.00
  827of                   1.00   0.91  0.09  0.00  0.00  0.00  0.00  0.00  0.00  0.00
  826pipe                 1.00   0.00  0.00  0.00  0.99  0.01  0.00  0.00  0.00  0.00
  826of                   1.00   0.04  0.77  0.00  0.10  0.00  0.10  0.00  0.89  0.00
  825pipe                 1.00   0.00  0.00  0.00  0.99  0.01  0.00  0.00  0.01  0.00
  825of                   1.00   0.80  0.16  0.00  0.00  0.00  0.04  0.00  0.00  0.00
  51OVRFLW                1.00   1.00  0.00  0.00  0.00  0.00  0.00  0.00  0.00  0.00
  51_7x10_1               1.00   0.00  0.00  0.00  0.99  0.01  0.00  0.00  0.00  0.00
  51_7x10_2               1.00   0.00  0.00  0.00  0.99  0.01  0.00  0.00  0.00  0.00
  707_modify              1.00   0.00  0.00  0.00  1.00  0.00  0.00  0.00  0.00  0.00
  708_modify              1.00   0.00  0.00  0.00  1.00  0.00  0.00  0.00  0.00  0.00
  709_modify              1.00   0.00  0.00  0.00  1.00  0.00  0.00  0.00  0.00  0.00
  710_modify              1.00   0.00  0.00  0.00  1.00  0.00  0.00  0.00  0.01  0.00
  47PIPE                  1.00   0.00  0.00  0.00  1.00  0.00  0.00  0.00  0.00  0.00
  47OVRFLW                1.00   0.04  0.00  0.00  0.00  0.00  0.00  0.96  0.00  0.00
  746_modify              1.00   0.00  0.00  0.00  1.00  0.00  0.00  0.00  0.00  0.00
  804pipe                 1.00   0.00  0.00  0.00  1.00  0.00  0.00  0.00  0.00  0.00
  804chan                 1.00   0.95  0.00  0.00  0.03  0.00  0.00  0.02  0.00  0.00
  813pipe                 1.00   0.00  0.00  0.00  1.00  0.00  0.00  0.00  0.00  0.00
  813chan                 1.00   0.92  0.00  0.00  0.07  0.00  0.00  0.02  0.00  0.00
  812pipe                 1.00   0.00  0.00  0.00  1.00  0.00  0.00  0.00  0.25  0.00
  812chan                 1.00   0.92  0.00  0.00  0.04  0.00  0.00  0.03  0.00  0.00
  811pipe                 1.00   0.00  0.00  0.00  1.00  0.00  0.00  0.00  0.00  0.00
  811chan                 1.00   0.93  0.00  0.00  0.02  0.00  0.00  0.05  0.00  0.00
  838of                   1.00   0.89  0.00  0.00  0.04  0.00  0.00  0.07  0.02  0.00
  838pip                  1.00   0.00  0.00  0.00  0.95  0.00  0.00  0.05  0.80  0.00
  839chan                 1.00   0.84  0.01  0.00  0.15  0.00  0.00  0.00  0.99  0.00
  839pipe                 1.00   0.00  0.82  0.00  0.18  0.00  0.00  0.00  0.88  0.00
  838chan                 1.00   0.86  0.00  0.00  0.06  0.01  0.00  0.08  0.04  0.00
  838pipe                 1.00   0.00  0.00  0.00  1.00  0.00  0.00  0.00  0.08  0.00
  36inch_1                1.00   0.00  0.00  0.00  1.00  0.00  0.00  0.00  0.00  0.00
  54inch_1                1.00   0.00  0.00  0.00  0.95  0.05  0.00  0.00  0.30  0.00
  36inch_2                1.00   0.00  0.00  0.00  1.00  0.00  0.00  0.00  0.74  0.00
  54inch_2                1.00   0.00  0.00  0.00  0.94  0.06  0.00  0.00  0.82  0.00
  848pipe                 1.00   0.00  0.00  0.00  0.58  0.42  0.00  0.00  0.00  0.00
  848chan                 1.00   0.92  0.00  0.00  0.00  0.00  0.00  0.08  0.00  0.00
  849_1                   1.00   0.00  0.00  0.00  1.00  0.00  0.00  0.00  0.03  0.00
  849_2                   1.00   0.00  0.00  0.00  1.00  0.00  0.00  0.00  0.03  0.00
  849_trap                1.00   0.98  0.00  0.00  0.00  0.00  0.00  0.02  0.00  0.00
  853pipe                 1.00   0.00  0.00  0.00  1.00  0.00  0.00  0.00  0.00  0.00
  853of                   1.00   0.00  0.75  0.00  0.25  0.00  0.00  0.00  0.00  0.00
  854of                   1.00   0.00  0.00  0.00  0.06  0.00  0.00  0.93  0.00  0.00
  861_1                   1.00   0.00  0.00  0.00  1.00  0.00  0.00  0.00  0.00  0.00
  861_2                   1.00   0.00  0.00  0.00  1.00  0.00  0.00  0.00  0.00  0.00
  861_trap                1.00   0.98  0.00  0.00  0.00  0.00  0.00  0.02  0.00  0.00
  883culv                 1.00   0.00  0.00  0.00  1.00  0.00  0.00  0.00  0.91  0.00
  883of                   1.00   0.78  0.12  0.00  0.02  0.00  0.00  0.08  0.93  0.00
  889pipe                 1.00   0.00  0.79  0.00  0.20  0.00  0.00  0.01  0.94  0.00
  889chan                 1.00   0.89  0.11  0.00  0.00  0.00  0.00  0.00  0.00  0.00
  691pipe                 1.00   0.00  0.00  0.00  1.00  0.00  0.00  0.00  0.00  0.00
  691chan                 1.00   0.91  0.02  0.00  0.07  0.00  0.00  0.00  0.95  0.00
  892pipe                 1.00   0.00  0.00  0.00  1.00  0.00  0.00  0.00  0.23  0.00
  892chan                 1.00   1.00  0.00  0.00  0.00  0.00  0.00  0.00  0.00  0.00
  893pipe                 1.00   0.00  0.00  0.00  1.00  0.00  0.00  0.00  0.00  0.00
  893chan                 1.00   0.93  0.07  0.00  0.00  0.00  0.00  0.00  0.00  0.00
  55_OVRFLW               1.00   0.99  0.01  0.00  0.00  0.00  0.00  0.00  0.00  0.00
  55_5x12_1               1.00   0.00  0.00  0.00  1.00  0.00  0.00  0.00  0.00  0.00
  55_5x12_2               1.00   0.00  0.00  0.00  1.00  0.00  0.00  0.00  0.00  0.00
  53_#7TRP                1.00   0.00  0.00  0.00  1.00  0.00  0.00  0.00  0.00  0.00
  708pipe                 1.00   0.00  0.00  0.00  0.09  0.00  0.00  0.91  0.00  0.00
  708chan                 1.00   0.92  0.00  0.00  0.04  0.00  0.00  0.03  0.00  0.00
  706pipe                 1.00   0.00  0.00  0.00  0.08  0.00  0.00  0.92  0.00  0.00
  706chan                 1.00   0.94  0.00  0.00  0.00  0.00  0.00  0.06  0.00  0.00
  704pipe                 1.00   0.00  0.00  0.00  1.00  0.00  0.00  0.00  0.02  0.00
  704chan                 1.00   1.00  0.00  0.00  0.00  0.00  0.00  0.00  0.00  0.00
  702pipe                 1.00   0.00  0.00  0.00  0.99  0.00  0.00  0.01  0.90  0.00
  702chan                 1.00   1.00  0.00  0.00  0.00  0.00  0.00  0.00  0.00  0.00
  700pipe                 1.00   0.00  0.00  0.00  1.00  0.00  0.00  0.00  0.00  0.00
  700chan                 1.00   1.00  0.00  0.00  0.00  0.00  0.00  0.00  0.00  0.00
  707pipe                 1.00   0.71  0.00  0.00  0.08  0.00  0.00  0.21  0.00  0.00
  707chan                 1.00   0.93  0.00  0.00  0.06  0.00  0.00  0.01  0.98  0.00
  705pipe                 1.00   0.00  0.00  0.00  0.08  0.00  0.00  0.92  0.00  0.00
  705chan                 1.00   1.00  0.00  0.00  0.00  0.00  0.00  0.00  0.00  0.00
  750p                    1.00   0.63  0.00  0.00  0.07  0.00  0.00  0.31  0.00  0.00
  750c                    1.00   0.94  0.00  0.00  0.00  0.00  0.00  0.06  0.00  0.00
  701pipe                 1.00   0.00  0.00  0.00  0.03  0.00  0.00  0.97  0.00  0.00
  701chan                 1.00   0.92  0.00  0.00  0.00  0.00  0.00  0.08  0.00  0.00
  740pipe                 1.00   0.00  0.00  0.00  0.99  0.01  0.00  0.00  0.94  0.00
  740chan                 1.00   0.92  0.00  0.00  0.00  0.00  0.00  0.08  0.00  0.00
  768pipe                 1.00   0.00  0.00  0.00  0.46  0.00  0.00  0.54  0.43  0.00
  768chan                 1.00   0.92  0.00  0.00  0.00  0.00  0.00  0.08  0.00  0.00
  770pipe                 1.00   0.56  0.00  0.00  0.10  0.00  0.00  0.34  0.00  0.00
  770chan                 1.00   0.91  0.00  0.00  0.06  0.00  0.00  0.03  0.00  0.00
  769pipe                 1.00   0.00  0.00  0.00  0.96  0.04  0.00  0.00  0.00  0.00
  769chan                 1.00   0.91  0.00  0.00  0.00  0.00  0.00  0.09  0.00  0.00
  782pipe                 1.00   0.00  0.00  0.00  0.07  0.00  0.00  0.93  0.00  0.00
  782chan                 1.00   0.92  0.00  0.00  0.06  0.00  0.00  0.03  0.00  0.00
  781pipe                 1.00   0.00  0.00  0.00  0.99  0.01  0.00  0.00  0.95  0.00
  781chan                 1.00   0.94  0.00  0.00  0.00  0.00  0.00  0.06  0.00  0.00
  780pipe                 1.00   0.00  0.00  0.00  0.09  0.00  0.00  0.91  0.00  0.00
  780chan                 1.00   0.91  0.04  0.00  0.05  0.00  0.00  0.00  0.99  0.00
  775pipe                 1.00   0.62  0.00  0.00  0.38  0.00  0.00  0.00  0.02  0.00
  775chan                 1.00   0.92  0.01  0.00  0.07  0.00  0.00  0.00  0.96  0.00
  774pipe                 1.00   0.62  0.00  0.00  0.38  0.00  0.00  0.00  0.64  0.00
  774chan                 1.00   0.91  0.01  0.00  0.07  0.00  0.00  0.00  0.99  0.00
  773pipe                 1.00   0.60  0.02  0.00  0.38  0.00  0.00  0.00  0.66  0.00
  773chan                 1.00   0.91  0.00  0.00  0.07  0.00  0.00  0.01  0.94  0.00
  772pipe                 1.00   0.60  0.00  0.00  0.10  0.00  0.00  0.30  0.00  0.00
  772chan                 1.00   0.91  0.00  0.00  0.07  0.00  0.00  0.01  0.00  0.00
  771pipe                 1.00   0.56  0.03  0.00  0.40  0.00  0.00  0.00  0.85  0.00
  771chan                 1.00   0.91  0.01  0.00  0.08  0.00  0.00  0.00  0.98  0.00
  DEANPIPE1               1.00   0.00  0.00  0.00  1.00  0.00  0.00  0.00  0.08  0.00
  DEANPIPE2               1.00   0.00  0.00  0.00  1.00  0.00  0.00  0.00  0.08  0.00
  DEANOVER                1.00   1.00  0.00  0.00  0.00  0.00  0.00  0.00  0.00  0.00
  TEUT_OVF                1.00   1.00  0.00  0.00  0.00  0.00  0.00  0.00  0.00  0.00
  TEUTPIPE1               1.00   0.00  0.00  0.00  1.00  0.00  0.00  0.00  0.00  0.00
  GBPIPE                  1.00   0.00  0.00  0.00  1.00  0.00  0.00  0.00  0.00  0.00
  GB_OVER                 1.00   1.00  0.00  0.00  0.00  0.00  0.00  0.00  0.00  0.00
  .21NAT                  1.00   0.00  0.00  0.00  1.00  0.00  0.00  0.00  0.00  0.00
  DEERWPIPE               1.00   0.00  0.00  0.00  1.00  0.00  0.00  0.00  0.00  0.00
  DEER_OVR                1.00   1.00  0.00  0.00  0.00  0.00  0.00  0.00  0.00  0.00
  .13_NAT                 1.00   0.00  0.00  0.00  1.00  0.00  0.00  0.00  0.00  0.00
  PATH_PIPE               1.00   0.00  0.00  0.00  1.00  0.00  0.00  0.00  0.00  0.00
  PATH_OV                 1.00   0.01  0.00  0.00  0.99  0.00  0.00  0.00  0.00  0.00
  BradleyIn               1.00   0.00  0.53  0.00  0.09  0.03  0.35  0.00  0.01  0.00
  Brad_Out                1.00   0.00  0.00  0.00  0.66  0.34  0.00  0.00  0.06  0.00
  BradBox                 1.00   0.00  0.59  0.00  0.38  0.03  0.00  0.00  0.98  0.00
  BradBoxOv               1.00   1.00  0.00  0.00  0.00  0.00  0.00  0.00  0.00  0.00
  s_config2               1.00   0.00  0.00  0.00  1.00  0.00  0.00  0.00  0.00  0.00
  LIB_1                   1.00   0.00  0.00  0.00  0.99  0.01  0.00  0.00  0.92  0.00
  LIB_2                   1.00   0.00  0.00  0.00  1.00  0.00  0.00  0.00  0.00  0.00
  LIB_3                   1.00   0.00  0.00  0.00  1.00  0.00  0.00  0.00  0.00  0.00
  LIB_4                   1.00   0.00  0.00  0.00  1.00  0.00  0.00  0.00  0.00  0.00
  LIB_5                   1.00   0.00  0.00  0.00  1.00  0.00  0.00  0.00  0.00  0.00
  LIB_6                   1.00   0.00  0.00  0.00  1.00  0.00  0.00  0.00  0.00  0.00
  LIB_7                   1.00   0.00  0.00  0.00  1.00  0.00  0.00  0.00  0.00  0.00
  LIB_8                   1.00   0.00  0.00  0.00  1.00  0.00  0.00  0.00  0.00  0.00
  LIB_9                   1.00   0.00  0.00  0.00  1.00  0.00  0.00  0.00  0.00  0.00
  LIB_10                  1.00   0.00  0.00  0.00  1.00  0.00  0.00  0.00  0.00  0.00
  LIB_12                  1.00   0.00  0.00  0.00  0.99  0.00  0.00  0.00  0.00  0.00
  
  
  *************************
  Conduit Surcharge Summary
  *************************
  
  ----------------------------------------------------------------------------
                                                           Hours        Hours 
                         --------- Hours Full --------   Above Full   Capacity
  Conduit                Both Ends  Upstream  Dnstream   Normal Flow   Limited
  ----------------------------------------------------------------------------
  644                         0.01      2.23      0.01      3.00         1.45
  817pipe                     1.00      1.00      1.20      0.84         0.84
  816pipe                     1.23      1.23      1.44      1.11         1.11
  815pipe1                    1.44      1.44      1.55      0.05         0.04
  815pipe2                    1.44      1.44      1.55      0.05         0.04
  814pipe                     1.43      1.55      1.43      1.57         1.45
  810pipe1                    0.60      0.67      0.60      0.70         0.52
  810pipe2                    0.63      0.89      0.63      0.94         0.64
  789pipe                     0.60      0.60      0.98      0.50         0.48
  803pipe                     0.63      0.68      0.63      0.63         0.52
  805pipe1                    0.70      0.89     23.46      0.24         0.18
  805pipe2                    0.60      0.89     23.36      0.39         0.30
  830pipe                     0.01      0.68      0.01      0.59         0.58
  831pipe                     1.45      1.50     23.74      0.24         0.21
  827pipe                     0.01      0.01      1.92      0.01         0.01
  826pipe                    23.66     23.73     23.66      0.09         0.06
  825pipe                    23.11     23.11     23.72      0.01         0.01
  51_7x10_1                   0.68      0.69      0.82      0.56         0.24
  51_7x10_2                   0.68      0.69      0.82      0.56         0.24
  47PIPE                     11.27     23.85     11.27     23.83        23.71
  804pipe                     0.76      0.94      0.76      0.57         0.44
  813pipe                     1.24      1.34      1.24      1.38         1.23
  812pipe                     1.14      1.20      1.14      0.70         0.61
  811pipe                     0.75      1.09      0.75      1.16         1.00
  838pip                      1.95      2.80      1.95      2.33         2.25
  839pipe                     2.69      2.69      2.80      0.01         0.01
  838pipe                     2.79      2.80      2.80      2.56         1.91
  36inch_1                    0.01      0.01      0.49      0.22         0.01
  36inch_2                    0.01      0.49      0.01      0.87         0.01
  848pipe                     0.88      3.35      0.88      4.00         2.62
  849_1                       0.01      0.01      0.01      0.84         0.01
  849_2                       0.01      0.01      0.01      0.84         0.01
  853pipe                    23.87     23.87     23.87      0.10         0.09
  861_1                       0.57      0.68      0.57      1.06         0.64
  861_2                       0.57      0.68      0.57      1.06         0.64
  883culv                     1.65      1.86      5.90      1.57         1.40
  889pipe                     0.68      0.68     23.73      0.01         0.01
  691pipe                     1.35      1.35      1.62      0.01         0.01
  892pipe                     1.24      6.66      1.48      7.84         4.49
  893pipe                     0.39      0.39      1.35      0.01         0.01
  55_5x12_1                   1.31      1.31      1.39      0.01         0.08
  55_5x12_2                   1.31      1.31      1.39      0.01         0.08
  708pipe                     1.06      1.08      1.08      0.19         0.16
  706pipe                     1.07      1.08      1.09      1.08         1.06
  704pipe                     1.13      1.13      1.16      1.09         1.06
  702pipe                     1.15      1.16      1.38      1.10         1.07
  700pipe                     1.41      1.53      1.55      1.24         1.15
  707pipe                     0.97      1.04      1.09      0.20         0.15
  705pipe                     1.07      1.17      1.10      0.42         0.38
  750p                        0.89      1.04      0.89      1.03         0.98
  701pipe                     0.23      1.18      0.23      1.20         1.17
  740pipe                     1.10      1.12     23.76      1.07         1.05
  768pipe                     0.67      1.31      0.83      1.33         1.29
  770pipe                     1.33      1.36      1.33      0.16         0.12
  769pipe                     1.31      1.33      1.31      1.36         1.33
  782pipe                     1.00      1.20      1.00      0.32         0.29
  781pipe                     0.97      0.97      1.19      0.01         0.01
  780pipe                     1.19      1.19      1.25      0.91         0.90
  775pipe                     1.28      1.28      1.29      0.55         0.15
  774pipe                     1.29      1.29      1.31      1.12         1.12
  773pipe                     1.29      1.31      1.32      1.15         0.76
  772pipe                     1.30      1.32      1.36      1.25         1.06
  771pipe                     1.33      1.36      1.36      1.18         0.29
  DEANPIPE1                   0.22      0.22      0.27      0.15         0.14
  DEANPIPE2                   0.22      0.22      0.27      0.15         0.14
  GBPIPE                      0.01      0.01      0.01      0.37         0.01
  DEERWPIPE                   0.13      0.57      0.13      1.70         0.47
  PATH_PIPE                  23.71     23.71     23.71      0.60         0.57
  BradleyIn                   0.01      0.01      3.29      0.01         0.01
  Brad_Out                    1.88     19.04      1.99     14.12        16.23
  

  Analysis begun on:  Tue Nov 20 16:47:49 2018
  Analysis ended on:  Tue Nov 20 16:48:20 2018
  Total elapsed time: 00:00:31