
  EPA STORM WATER MANAGEMENT MODEL - VERSION 5.1 (Build 5.1.013)
  --------------------------------------------------------------

  Example User3 
  
  
  *********************************************************
  NOTE: The summary statistics displayed in this report are
  based on results found at every computational time step,  
  not just on results from each reporting time step.
  *********************************************************
  
  ****************
  Analysis Options
  ****************
  Flow Units ............... CMS
  Process Models:
    Rainfall/Runoff ........ YES
    RDII ................... NO
    Snowmelt ............... NO
    Groundwater ............ NO
    Flow Routing ........... YES
    Ponding Allowed ........ NO
    Water Quality .......... NO
  Infiltration Method ...... HORTON
  Flow Routing Method ...... DYNWAVE
  Surcharge Method ......... SLOT
  Starting Date ............ 01/01/1999 01:00:00
  Ending Date .............. 01/01/1999 07:00:00
  Antecedent Dry Days ...... 0.0
  Report Time Step ......... 00:01:00
  Wet Time Step ............ 00:01:00
  Dry Time Step ............ 00:10:00
  Routing Time Step ........ 0.50 sec
  Variable Time Step ....... NO
  Maximum Trials ........... 8
  Number of Threads ........ 1
  Head Tolerance ........... 0.001500 m
  
  
  **************************        Volume         Depth
  Runoff Quantity Continuity     hectare-m            mm
  **************************     ---------       -------
  Total Precipitation ......        53.067        42.200
  Evaporation Loss .........         0.570         0.453
  Infiltration Loss ........        22.593        17.966
  Surface Runoff ...........        29.003        23.063
  Final Storage ............         0.917         0.729
  Continuity Error (%) .....        -0.029
  
  
  **************************        Volume        Volume
  Flow Routing Continuity        hectare-m      10^6 ltr
  **************************     ---------     ---------
  Dry Weather Inflow .......         0.000         0.000
  Wet Weather Inflow .......        29.003       290.028
  Groundwater Inflow .......         0.000         0.000
  RDII Inflow ..............         0.000         0.000
  External Inflow ..........         0.001         0.013
  External Outflow .........        22.058       220.579
  Flooding Loss ............         6.830        68.303
  Evaporation Loss .........         0.000         0.000
  Exfiltration Loss ........         0.000         0.000
  Initial Stored Volume ....         2.302        23.020
  Final Stored Volume ......         2.459        24.594
  Continuity Error (%) .....        -0.132
  
  
  *************************
  Highest Continuity Errors
  *************************
  Node SNOTMYR-I (1.33%)
  Node SSHBSAR-I (1.13%)
  
  
  ********************************
  Highest Flow Instability Indexes
  ********************************
  All links are stable.
  
  
  *************************
  Routing Time Step Summary
  *************************
  Minimum Time Step           :     0.50 sec
  Average Time Step           :     0.50 sec
  Maximum Time Step           :     0.50 sec
  Percent in Steady State     :     0.00
  Average Iterations per Step :     2.05
  Percent Not Converging      :     0.19
  
  
  ***************************
  Subcatchment Runoff Summary
  ***************************
  
  ------------------------------------------------------------------------------------------------------------------------------
                            Total      Total      Total      Total     Imperv       Perv      Total       Total     Peak  Runoff
                           Precip      Runon       Evap      Infil     Runoff     Runoff     Runoff      Runoff   Runoff   Coeff
  Subcatchment                 mm         mm         mm         mm         mm         mm         mm    10^6 ltr      CMS
  ------------------------------------------------------------------------------------------------------------------------------
  CMCPWIN                   42.20       0.00       0.56       9.07      30.52       1.02      31.54        5.41     2.95   0.747
  CMCPBAN                   42.20       0.00       0.59       6.35      33.33       0.80      34.13        2.95     1.61   0.809
  CMCPELG                   42.20       0.00       0.43      20.23      19.30       1.61      20.91        1.45     0.79   0.496
  CMCPPAC                   42.20       0.00       0.59       6.35      33.33       0.80      34.13        3.88     2.12   0.809
  CPAC72                    42.20       0.00       0.43      19.42      20.10       1.58      21.68        2.56     1.40   0.514
  CPAC75                    42.20       0.00       0.48      15.40      24.11       1.40      25.51        2.98     1.63   0.605
  CALEXAN                   42.20       0.00       0.58       7.51      32.13       0.90      33.02        0.28     0.15   0.783
  CLOG80                    42.20       0.00       0.63       3.67      36.13       0.53      36.66        2.17     1.18   0.869
  CHEN90                    42.20       0.00       0.40      22.66      16.89       1.70      18.60        2.61     1.42   0.441
  CHIGMAU                   42.20       0.00       0.55       9.85      29.72       1.07      30.80        2.24     1.22   0.730
  CHEN90-R                  42.20       0.00       0.26      35.72       4.03       2.07       6.10        0.35     0.19   0.144
  CHIGMAU-R                 42.20       0.00       0.26      35.72       4.03       2.07       6.10        0.29     0.16   0.145
  CMCPLOG                   42.20       0.00       0.39      23.47      16.09       1.73      17.82        1.63     0.89   0.422
  CLOGYEO                   42.20       0.00       0.30      31.62       8.06       1.97      10.03        0.46     0.25   0.238
  CLOGYEO-R                 42.20       0.00       0.26      35.72       4.03       2.07       6.10        0.03     0.02   0.145
  CLOGWNK                   42.20       0.00       0.37      25.50      14.08       1.80      15.88        1.89     1.03   0.376
  CLOGCEC-R                 42.20       0.00       0.26      35.72       4.03       2.07       6.10        1.67     0.92   0.144
  CLOGQUE-R                 42.20       0.00       0.29      32.44       7.25       1.99       9.24        0.39     0.21   0.219
  CLOGVIN-R                 42.20       0.00       0.26      35.72       4.03       2.07       6.10        0.72     0.39   0.145
  CLOGWNK-R                 42.20       0.00       0.26      35.72       4.03       2.07       6.10        0.14     0.08   0.145
  CLOGELE                   42.20       0.00       0.39      23.47      16.09       1.73      17.82        1.29     0.71   0.422
  CLOGVIN                   42.20       0.00       0.51      13.41      26.12       1.29      27.41        2.93     1.60   0.650
  CLOGQUE                   42.20       0.00       0.48      15.40      24.11       1.40      25.51        0.42     0.23   0.605
  CLOGCEC                   42.20       0.00       0.46      17.41      22.11       1.49      23.60        2.21     1.21   0.559
  CCECROY                   42.20       0.00       0.46      17.41      22.11       1.49      23.60        0.40     0.22   0.559
  SMCPWIN1                  42.20       0.00       0.58       7.51      32.13       0.90      33.02        2.83     1.55   0.783
  SMCPWIN2                  42.20       0.00       0.54      10.64      28.92       1.13      30.05        2.58     1.41   0.712
  SMCPBAN                   42.20       0.00       0.59       6.35      33.33       0.80      34.13        2.95     1.61   0.809
  SMCPELG                   42.20       0.00       0.43      20.23      19.30       1.61      20.91        1.45     0.79   0.496
  SMCPPAC                   42.20       0.00       0.59       6.35      33.33       0.80      34.13        3.88     2.12   0.809
  SPAC72                    42.20       0.00       0.43      19.42      20.10       1.58      21.68        2.56     1.40   0.514
  SPAC75                    42.20       0.00       0.48      15.40      24.11       1.40      25.51        2.98     1.63   0.605
  SXANALE                   42.20       0.00       0.58       7.51      32.13       0.90      33.02        0.28     0.15   0.783
  SLOG80                    42.20       0.00       0.63       3.67      36.13       0.53      36.66        2.17     1.18   0.869
  SHEN90                    42.20       0.00       0.40      22.66      16.89       1.70      18.60        2.61     1.42   0.441
  SHIGMAU                   42.20       0.00       0.55       9.85      29.72       1.07      30.80        2.24     1.22   0.730
  SHEN90-R                  42.20       0.00       0.26      35.72       4.03       2.07       6.10        0.35     0.19   0.144
  SHIGMAU-R                 42.20       0.00       0.26      35.72       4.03       2.07       6.10        0.29     0.16   0.145
  SMCPLOG                   42.20       0.00       0.39      23.47      16.09       1.73      17.82        1.63     0.89   0.422
  SLOGYEO                   42.20       0.00       0.30      31.62       8.06       1.97      10.03        0.46     0.25   0.238
  SLOGYEO-R                 42.20       0.00       0.26      35.72       4.03       2.07       6.10        0.03     0.02   0.145
  SLOGWNK                   42.20       0.00       0.37      25.50      14.08       1.80      15.88        1.89     1.03   0.376
  SLOGCEC-R                 42.20       0.00       0.26      35.72       4.03       2.07       6.10        1.67     0.92   0.144
  SLOGQUE-R                 42.20       0.00       0.29      32.44       7.25       1.99       9.24        0.39     0.21   0.219
  SLOGVIN-R                 42.20       0.00       0.26      35.72       4.03       2.07       6.10        0.72     0.39   0.145
  SLOGWNK-R                 42.20       0.00       0.26      35.72       4.03       2.07       6.10        0.14     0.08   0.145
  SLOGELE                   42.20       0.00       0.39      23.47      16.09       1.73      17.82        1.29     0.71   0.422
  SLOGVIN                   42.20       0.00       0.51      13.41      26.12       1.29      27.41        2.93     1.60   0.650
  SLOGQUE                   42.20       0.00       0.48      15.40      24.11       1.40      25.51        0.42     0.23   0.605
  SLOGCEC                   42.20       0.00       0.46      17.41      22.11       1.49      23.60        2.21     1.21   0.559
  SCECROY                   42.20       0.00       0.46      17.41      22.11       1.49      23.60        0.40     0.22   0.559
  CLIPSAR                   42.20       0.00       0.47      16.20      23.31       1.44      24.75        3.35     1.83   0.586
  CSARBUR                   42.20       0.00       0.46      17.41      22.11       1.49      23.60        1.44     0.78   0.559
  CSARARL                   42.20       0.00       0.47      16.20      23.31       1.44      24.75        3.43     1.87   0.586
  CLIPWEL                   42.20       0.00       0.48      15.40      24.11       1.40      25.51        3.83     2.09   0.605
  CWELSHB                   42.20       0.00       0.46      17.41      22.11       1.49      23.60        1.12     0.61   0.559
  CWELDOM                   42.20       0.00       0.45      18.21      21.31       1.53      22.84        3.33     1.82   0.541
  CLIPNOT                   42.20       0.00       0.54      10.24      29.32       1.10      30.42        3.03     1.65   0.721
  CNOTDOM                   42.20       0.00       0.46      17.41      22.11       1.49      23.60        6.52     3.56   0.559
  CNOTSHB                   42.20       0.00       0.48      15.80      23.71       1.42      25.13        2.93     1.60   0.596
  SLIPSAR                   42.20       0.00       0.47      16.20      23.31       1.44      24.75        3.35     1.83   0.586
  SSARBUR                   42.20       0.00       0.46      17.41      22.11       1.49      23.60        1.44     0.78   0.559
  SSARARL1                  42.20       0.00       0.48      15.59      23.92       1.41      25.33        1.17     0.64   0.600
  SSARARL2                  42.20       0.00       0.48      15.59      23.92       1.41      25.33        1.17     0.64   0.600
  SSARARL3                  42.20       0.00       0.46      17.41      22.11       1.49      23.60        1.09     0.59   0.559
  SLIPWEL1                  42.20       0.00       0.48      15.40      24.11       1.40      25.51        2.68     1.46   0.605
  SLIPWEL2                  42.20       0.00       0.48      15.40      24.11       1.40      25.51        1.15     0.63   0.605
  SWELSHB                   42.20       0.00       0.46      17.41      22.11       1.49      23.60        1.12     0.61   0.559
  SWELDOM                   42.20       0.00       0.45      18.21      21.31       1.53      22.84        3.33     1.82   0.541
  SLIPNOT1                  42.20       0.00       0.46      17.01      22.51       1.48      23.99        1.19     0.65   0.568
  SLIPNOT2                  42.20       0.00       0.63       3.67      36.13       0.53      36.66        1.82     0.99   0.869
  SNOTDOM1                  42.20       0.00       0.46      17.41      22.11       1.49      23.60        2.17     1.19   0.559
  SNOTDOM2                  42.20       0.00       0.46      17.41      22.11       1.49      23.60        2.17     1.19   0.559
  SNOTDOM3                  42.20       0.00       0.46      17.41      22.11       1.49      23.60        2.17     1.19   0.559
  SNOTSHB                   42.20       0.00       0.48      15.80      23.71       1.42      25.13        2.93     1.60   0.596
  CAUBPAL                   42.20       0.00       0.46      17.41      22.11       1.49      23.60        0.91     0.49   0.559
  CAUBWOL                   42.20       0.00       0.46      17.41      22.11       1.49      23.60        2.10     1.15   0.559
  CAUBWSM                   42.20       0.00       0.46      17.41      22.11       1.49      23.60        0.77     0.42   0.559
  CELCGRF                   42.20       0.00       0.46      17.41      22.11       1.49      23.60        3.93     2.14   0.559
  CELCING                   42.20       0.00       0.46      17.41      22.11       1.49      23.60        1.49     0.81   0.559
  CLIPELC                   42.20       0.00       0.46      17.41      22.11       1.49      23.60        0.62     0.34   0.559
  CLIPSMT                   42.20       0.00       0.46      17.01      22.51       1.48      23.99        2.23     1.22   0.568
  CPORBAN                   42.20       0.00       0.46      17.41      22.11       1.49      23.60        2.87     1.56   0.559
  CPORBUR                   42.20       0.00       0.52      11.82      27.72       1.20      28.92        6.32     3.45   0.685
  CPORDOM                   42.20       0.00       0.51      13.41      26.12       1.29      27.41        3.05     1.66   0.650
  CPORGRE                   42.20       0.00       0.46      17.41      22.11       1.49      23.60        4.00     2.18   0.559
  CPORLIP                   42.20       0.00       0.47      16.20      23.31       1.44      24.75        1.46     0.80   0.586
  CPORSHB                   42.20       0.00       0.48      15.80      23.71       1.42      25.13        2.57     1.40   0.596
  CPORSPR                   42.20       0.00       0.48      15.40      24.11       1.40      25.51        2.55     1.39   0.605
  CPORWLL                   42.20       0.00       0.58       7.51      32.13       0.90      33.02        5.42     2.96   0.783
  CSMTING                   42.20       0.00       0.46      17.41      22.11       1.49      23.60        1.80     0.98   0.559
  CSTMSHB                   42.20       0.00       0.46      17.41      22.11       1.49      23.60        3.09     1.69   0.559
  SAUBPAL                   42.20       0.00       0.46      17.41      22.11       1.49      23.60        0.91     0.49   0.559
  SAUBWOL                   42.20       0.00       0.46      17.41      22.11       1.49      23.60        2.10     1.15   0.559
  SELCGRF1                  42.20       0.00       0.46      17.41      22.11       1.49      23.60        3.14     1.71   0.559
  SELCGRF2                  42.20       0.00       0.46      17.41      22.11       1.49      23.60        0.79     0.43   0.559
  SELCING                   42.20       0.00       0.46      17.41      22.11       1.49      23.60        1.49     0.81   0.559
  SLIPELC                   42.20       0.00       0.46      17.41      22.11       1.49      23.60        0.62     0.34   0.559
  SLIPSMT1                  42.20       0.00       0.46      17.41      22.11       1.49      23.60        1.10     0.60   0.559
  SLIPSMT2                  42.20       0.00       0.47      16.61      22.91       1.46      24.37        1.13     0.62   0.577
  SPORBAN1                  42.20       0.00       0.46      17.41      22.11       1.49      23.60        2.01     1.09   0.559
  SPORBAN2                  42.20       0.00       0.46      17.41      22.11       1.49      23.60        0.86     0.47   0.559
  SPORBUR1                  42.20       0.00       0.46      17.41      22.11       1.49      23.60        1.29     0.70   0.559
  SPORBUR2                  42.20       0.00       0.59       6.34      33.33       0.80      34.13        1.86     1.02   0.809
  SPORBUR3                  42.20       0.00       0.52      11.82      27.72       1.20      28.92        1.58     0.86   0.685
  SPORBUR4                  42.20       0.00       0.52      11.82      27.72       1.20      28.92        1.58     0.86   0.685
  SPORDOM1                  42.20       0.00       0.46      17.41      22.11       1.49      23.60        0.66     0.36   0.559
  SPORDOM2                  42.20       0.00       0.46      17.41      22.11       1.49      23.60        0.66     0.36   0.559
  SPORDOM3                  42.20       0.00       0.53      11.43      28.12       1.18      29.30        0.81     0.44   0.694
  SPORDOM4                  42.20       0.00       0.58       7.51      32.13       0.90      33.02        0.92     0.50   0.783
  SPORGRE1                  42.20       0.00       0.46      17.41      22.11       1.49      23.60        1.00     0.55   0.559
  SPORGRE2                  42.20       0.00       0.46      17.41      22.11       1.49      23.60        1.00     0.55   0.559
  SPORGRE3                  42.20       0.00       0.46      17.41      22.11       1.49      23.60        1.00     0.55   0.559
  SPORGRE4                  42.20       0.00       0.46      17.41      22.11       1.49      23.60        1.00     0.55   0.559
  SPORLIP1                  42.20       0.00       0.47      16.20      23.31       1.44      24.75        0.73     0.40   0.586
  SPORLIP2                  42.20       0.00       0.47      16.20      23.31       1.44      24.75        0.73     0.40   0.586
  SPORSHB1                  42.20       0.00       0.46      17.41      22.11       1.49      23.60        0.80     0.44   0.559
  SPORSHB2                  42.20       0.00       0.51      12.61      26.92       1.25      28.17        0.96     0.52   0.667
  SPORSHB3                  42.20       0.00       0.46      17.41      22.11       1.49      23.60        0.80     0.44   0.559
  SPORSPR1                  42.20       0.00       0.46      17.41      22.11       1.49      23.60        0.79     0.43   0.559
  SPORSPR2                  42.20       0.00       0.53      11.42      28.13       1.18      29.31        0.98     0.53   0.694
  SPORSPR3                  42.20       0.00       0.46      17.41      22.11       1.49      23.60        0.79     0.43   0.559
  SPORWLL1                  42.20       0.00       0.43      19.42      20.10       1.58      21.68        1.19     0.65   0.514
  SPORWLL2                  42.20       0.00       0.66       1.81      38.13       0.29      38.42        2.10     1.13   0.910
  SPORWLL3                  42.20       0.00       0.66       1.81      38.13       0.29      38.42        2.10     1.13   0.910
  SSMTING1                  42.20       0.00       0.46      17.41      22.11       1.49      23.60        1.26     0.69   0.559
  SSMTING2                  42.20       0.00       0.46      17.41      22.11       1.49      23.60        0.54     0.29   0.559
  SSTMSHB1                  42.20       0.00       0.46      17.41      22.11       1.49      23.60        1.55     0.84   0.559
  SSTMSHB2                  42.20       0.00       0.53      11.03      28.52       1.15      29.67        0.97     0.53   0.703
  SSTMSHB3                  42.20       0.00       0.38      23.87      15.69       1.74      17.43        0.57     0.31   0.413
  CPORCAN                   42.20       0.00       0.52      11.82      27.72       1.20      28.92        2.07     1.13   0.685
  CPORHOM                   42.20       0.00       0.49      14.60      24.91       1.36      26.27        2.57     1.41   0.623
  CSIMSTM                   42.20       0.00       0.46      17.41      22.11       1.49      23.60        2.99     1.63   0.559
  CSIMELC                   42.20       0.00       0.46      17.41      22.11       1.49      23.60        3.51     1.91   0.559
  CSIMSAR                   42.20       0.00       0.48      15.80      23.71       1.42      25.13        1.66     0.91   0.596
  CSIMWEL                   42.20       0.00       0.51      13.01      26.52       1.27      27.79        1.95     1.06   0.659
  SPORCAN1                  42.20       0.00       0.59       6.35      33.33       0.80      34.13        1.22     0.67   0.809
  SPORCAN2                  42.20       0.00       0.46      17.41      22.11       1.49      23.60        0.85     0.46   0.559
  SPORHOM1                  42.20       0.00       0.49      14.60      24.91       1.36      26.27        1.29     0.70   0.623
  SPORHOM2                  42.20       0.00       0.49      14.60      24.91       1.36      26.27        1.29     0.70   0.623
  SSIMSTM1                  42.20       0.00       0.46      17.41      22.11       1.49      23.60        1.49     0.82   0.559
  SSIMSTM2                  42.20       0.00       0.46      17.41      22.11       1.49      23.60        1.49     0.82   0.559
  SSIMELC                   42.20       0.00       0.46      17.41      22.11       1.49      23.60        3.51     1.91   0.559
  SSIMSAR                   42.20       0.00       0.48      15.80      23.71       1.42      25.13        1.66     0.91   0.596
  SSIMWEL1                  42.20       0.00       0.50      12.69      26.56       1.60      28.16        0.99     0.56   0.667
  SSIMWEL2                  42.20       0.00       0.50      12.69      26.56       1.60      28.16        0.99     0.56   0.667
  CCORMID                   42.20       0.00       0.39      23.47      16.09       1.73      17.82        2.99     1.63   0.422
  CMRYCOR                   42.20       0.00       0.48      15.80      23.71       1.42      25.13        1.04     0.57   0.596
  CMRYWSM                   42.20       0.00       0.48      15.40      24.11       1.40      25.51        0.49     0.27   0.605
  CWALPUR                   42.20       0.00       0.46      17.41      22.11       1.49      23.60        0.82     0.45   0.559
  CWSMWAL                   42.20       0.00       0.46      17.41      22.11       1.49      23.60        2.20     1.20   0.559
  CWSMARL                   42.20       0.00       0.46      17.41      22.11       1.49      23.60        2.78     1.51   0.559
  CWSMCAN                   42.20       0.00       0.46      17.41      22.11       1.49      23.60        1.81     0.99   0.559
  CWSMETH                   42.20       0.00       0.46      17.41      22.11       1.49      23.60        2.03     1.11   0.559
  CCANPRE                   42.20       0.00       0.36      26.31      13.28       1.82      15.10        1.01     0.55   0.358
  SCORMID                   42.20       0.00       0.39      23.47      16.09       1.73      17.82        2.99     1.63   0.422
  SMRYCOR                   42.20       0.00       0.48      15.80      23.71       1.42      25.13        1.04     0.57   0.596
  SMRYWSM                   42.20       0.00       0.48      15.40      24.11       1.40      25.51        0.49     0.27   0.605
  SWALPUR                   42.20       0.00       0.46      17.41      22.11       1.49      23.60        0.82     0.45   0.559
  SWSMWAL1                  42.20       0.00       0.46      17.41      22.11       1.49      23.60        1.10     0.60   0.559
  SWSMWAL2                  42.20       0.00       0.46      17.41      22.11       1.49      23.60        1.10     0.60   0.559
  SWSMARL1                  42.20       0.00       0.46      17.41      22.11       1.49      23.60        1.39     0.76   0.559
  SWSMARL2                  42.20       0.00       0.46      17.41      22.11       1.49      23.60        1.39     0.76   0.559
  SWSMCAN1                  42.20       0.00       0.46      17.41      22.11       1.49      23.60        0.91     0.49   0.559
  SWSMCAN2                  42.20       0.00       0.46      17.41      22.11       1.49      23.60        0.91     0.49   0.559
  SWSMETH1                  42.20       0.00       0.46      17.41      22.11       1.49      23.60        1.02     0.55   0.559
  SWSMETH2                  42.20       0.00       0.46      17.41      22.11       1.49      23.60        1.02     0.55   0.559
  SCANPRE                   42.20       0.00       0.36      26.31      13.28       1.82      15.10        1.01     0.55   0.358
  
  
  ******************
  Node Depth Summary
  ******************
  
  ---------------------------------------------------------------------------------
                                 Average  Maximum  Maximum  Time of Max    Reported
                                   Depth    Depth      HGL   Occurrence   Max Depth
  Node                 Type       Meters   Meters   Meters  days hr:min      Meters
  ---------------------------------------------------------------------------------
  CCOROUT1             JUNCTION     0.38     1.35   225.30     0  01:45        1.34
  SCANOUT1             JUNCTION     1.57     4.36   226.62     0  01:43        4.05
  XCAUBPAL             JUNCTION     1.53     5.69   229.17     0  01:43        5.68
  XSCANPAL             JUNCTION     1.65     6.27   228.55     0  01:45        6.25
  XSRUBPAL             JUNCTION     2.31     3.82   225.32     0  01:47        3.72
  SAUBOUT              OUTFALL      2.70     2.70   223.70     0  00:00        2.70
  SCANOUT              OUTFALL      1.60     1.70   223.80     0  01:44        1.70
  SRUBOUT              OUTFALL      2.55     2.55   223.70     0  00:00        2.55
  CAUBOUT              OUTFALL      0.69     1.23   224.52     0  01:41        1.23
  CCOROUT              OUTFALL      0.35     1.32   225.16     0  01:45        1.31
  CMRYOUT              OUTFALL      0.37     0.60   223.99     0  01:44        0.60
  CALEXAN-I            STORAGE      1.20     3.94   229.81     0  01:34        3.94
  CAUBPAL-I            STORAGE      1.57     5.75   229.17     0  01:43        5.73
  CAUBPOR              STORAGE      1.75     6.20   230.06     0  01:35        6.05
  CAUBSPS              STORAGE      0.98     1.82   225.17     0  01:41        1.82
  CAUBWOL-I            STORAGE      1.59     6.02   229.61     0  01:43        5.92
  CAUBWSM-I            STORAGE      1.61     6.08   229.81     0  01:43        5.94
  CCANPRE-I            STORAGE      0.75     4.27   229.80     0  01:35        4.27
  CCECROY-I            STORAGE      0.57     1.86   229.56     0  01:31        1.86
  CCORDIV              STORAGE      0.37     2.53   226.48     0  01:45        2.53
  CCORMID-I            STORAGE      0.50     2.97   227.07     0  01:44        2.96
  CELCGRF-I            STORAGE      0.93     4.28   229.89     0  01:32        4.28
  CELCING-I            STORAGE      1.08     5.60   230.84     0  01:35        4.96
  CHEN90-I             STORAGE      1.12     4.18   230.21     0  01:35        4.18
  CHIGMAU-I            STORAGE      1.06     3.78   229.90     0  01:35        3.79
  CLIP25               STORAGE      1.71     5.90   229.96     0  01:35        5.90
  CLIP35               STORAGE      1.70     5.45   229.77     0  01:34        5.45
  CLIPELC-I            STORAGE      1.70     5.81   230.21     0  01:35        5.59
  CLIPNOT-I            STORAGE      1.62     4.56   229.63     0  01:34        4.56
  CLIPSAR-I            STORAGE      1.68     5.86   230.46     0  01:35        5.80
  CLIPSMT-I            STORAGE      1.72     5.93   230.15     0  01:35        5.93
  CLIPWEL-I            STORAGE      1.67     5.68   230.47     0  01:35        5.10
  CLIPYAR              STORAGE      1.64     4.97   229.87     0  01:34        4.97
  CLOG80-I             STORAGE      1.16     5.45   231.40     0  01:35        4.27
  CLOGCEC-I            STORAGE      0.86     2.90   230.14     0  01:30        2.90
  CLOGELE-I            STORAGE      1.05     3.04   229.66     0  01:30        3.04
  CLOGQUE-I            STORAGE      0.99     3.13   230.08     0  01:30        3.13
  CLOGVIN-I            STORAGE      1.06     3.58   230.40     0  01:30        3.58
  CLOGWNK-I            STORAGE      1.09     3.16   229.56     0  01:30        3.16
  CLOGYEO-I            STORAGE      1.12     3.51   229.70     0  01:31        3.51
  CMCPBAN-I            STORAGE      1.43     4.33   229.74     0  01:34        4.33
  CMCPELG-I            STORAGE      1.38     4.49   230.04     0  01:34        4.49
  CMCPLOG-I            STORAGE      1.16     3.91   229.89     0  01:33        3.91
  CMCPPAC-I            STORAGE      1.36     4.26   229.92     0  01:34        4.26
  CMCPROS              STORAGE      1.36     4.54   230.16     0  01:34        4.54
  CMCPWIN-I            STORAGE      1.54     5.10   230.31     0  01:34        4.90
  CMRYCOR-I            STORAGE      0.47     3.01   227.32     0  01:45        3.01
  CMRYCSO              STORAGE      0.85     3.00   226.40     0  01:37        3.00
  CMRYWSM-I            STORAGE      0.74     3.54   228.21     0  01:45        3.53
  CNOTDOM-I            STORAGE      0.95     3.63   230.07     0  01:28        3.63
  CNOTSHB-I            STORAGE      1.12     3.96   229.94     0  01:31        3.96
  CPAC72-I             STORAGE      0.70     3.09   229.94     0  01:34        3.09
  CPAC75-I             STORAGE      0.39     1.92   229.71     0  01:35        1.91
  CPORBAN-I            STORAGE      1.17     5.51   230.23     0  01:32        5.50
  CPORBUR-I            STORAGE      1.06     4.94   229.90     0  01:32        4.94
  CPORCAN-I            STORAGE      0.74     4.42   230.23     0  01:35        4.33
  CPORDOM-I            STORAGE      1.14     5.33   230.44     0  01:34        5.32
  CPORGRE-I            STORAGE      1.00     5.00   230.54     0  01:32        5.00
  CPORHOM-I            STORAGE      0.55     3.95   230.21     0  01:35        3.95
  CPORLIP-I            STORAGE      1.73     6.20   230.12     0  01:35        5.89
  CPORSHB-I            STORAGE      1.25     5.78   230.46     0  01:42        5.78
  CPORSPR-I            STORAGE      0.77     4.17   230.50     0  01:31        4.16
  CPORWLL-I            STORAGE      0.70     3.86   230.65     0  01:31        3.86
  CPREWAL              STORAGE      0.77     4.77   230.06     0  01:36        4.64
  CSARARL-I            STORAGE      0.76     3.38   229.44     0  01:33        3.38
  CSARBUR-I            STORAGE      0.99     4.20   229.77     0  01:33        4.20
  CSIMELC-I            STORAGE      0.65     3.16   230.36     0  01:30        3.16
  CSIMPOR              STORAGE      0.70     4.24   230.19     0  01:35        4.24
  CSIMSAR-I            STORAGE      0.49     1.74   229.43     0  01:31        1.74
  CSIMSTM-I            STORAGE      0.74     3.31   229.88     0  01:31        3.31
  CSIMWEL-I            STORAGE      0.24     0.86   229.53     0  01:30        0.86
  CSMTING-I            STORAGE      0.96     4.89   230.26     0  01:33        4.89
  CSTMSHB-I            STORAGE      0.88     4.76   230.34     0  01:34        4.76
  CWALPUR-I            STORAGE      0.83     4.52   229.63     0  01:36        4.49
  CWELDOM-I            STORAGE      0.62     3.39   230.21     0  01:34        3.39
  CWELSHB-I            STORAGE      0.74     3.46   229.80     0  01:34        3.46
  CWSMARL-I            STORAGE      0.47     3.44   229.98     0  01:33        3.44
  CWSMCAN-I            STORAGE      0.59     4.14   230.11     0  01:36        4.14
  CWSMETH-I            STORAGE      0.52     3.70   229.98     0  01:33        3.70
  CWSMWAL-I            STORAGE      0.64     4.53   230.12     0  01:42        4.52
  SALEMAU-I            STORAGE      0.69     7.92   232.37     0  01:43        7.92
  SALVNOT-I            STORAGE      0.81     8.39   232.01     0  01:43        8.39
  SALVSAR-I            STORAGE      1.22     9.27   232.23     0  01:45        7.82
  SALVWEL-I            STORAGE      1.06     9.15   232.35     0  01:43        8.81
  SBUR28               STORAGE      1.75    10.40   232.65     0  01:44        6.37
  SBUREIN-I            STORAGE      1.83    10.25   232.41     0  01:44        8.21
  SBURELC-I            STORAGE      1.36    10.13   232.87     0  01:45        8.18
  SBURPOR-I            STORAGE      1.93     9.54   231.57     0  01:44        5.99
  SBURSMT-I            STORAGE      1.49     9.66   232.22     0  01:44        9.60
  SCANPAL              STORAGE      1.65     6.13   228.39     0  01:45        6.11
  SCANPRE-I            STORAGE      1.13     7.86   230.81     0  01:44        7.85
  SCANWOL-I            STORAGE      1.56     6.95   229.36     0  01:45        6.95
  SCANWSM-I            STORAGE      1.45     7.74   230.32     0  01:45        7.72
  SDUM1-I              STORAGE      0.56     6.56   232.00     0  01:43        6.56
  SDUM2-I              STORAGE      0.52     6.64   232.50     0  01:42        6.64
  SDUM3-I              STORAGE      0.31     5.51   232.50     0  01:42        5.51
  SDUM4                STORAGE      0.60     7.50   232.20     0  01:43        7.50
  SDUM5                STORAGE      0.62     7.81   232.20     0  01:44        7.81
  SELCDOM-I            STORAGE      0.19     7.09   232.85     0  01:44        7.09
  SLARWIL-I            STORAGE      0.80     8.24   232.20     0  01:43        8.24
  SLENWSM-I            STORAGE      2.12     8.30   230.07     0  01:44        7.83
  SMAULOG-I            STORAGE      0.63     8.15   232.70     0  01:43        7.91
  SMCP85-I             STORAGE      0.60     7.22   232.24     0  01:43        7.22
  SMCPMCD-I            STORAGE      0.78     8.76   232.58     0  01:43        8.32
  SMCPNOT              STORAGE      0.80     8.54   232.28     0  01:44        8.52
  SMYRWIN-I            STORAGE      0.48     7.64   232.20     0  01:42        7.64
  SNOTMYR-I            STORAGE      0.57     8.00   232.40     0  01:43        8.00
  SNOTWLL-I            STORAGE      0.30     6.25   232.40     0  01:43        6.25
  SPORDOM-I            STORAGE      0.61     7.77   231.12     0  01:44        7.68
  SPORGRE-I            STORAGE      0.29     8.00   231.80     0  01:44        7.82
  SPORSHB-I            STORAGE      2.27     8.92   230.59     0  01:44        7.71
  SPORSPR-I            STORAGE      0.24     7.40   231.52     0  01:44        6.47
  SPORWLL-I            STORAGE      0.19     7.87   232.39     0  01:44        5.97
  SRUB02               STORAGE      2.51     4.48   225.72     0  01:46        3.76
  SRUBPAL-I            STORAGE      2.33     3.70   225.16     0  01:47        3.68
  SRUBWOL-I            STORAGE      2.26     9.11   230.70     0  01:45        4.18
  SSHB33               STORAGE      1.44    10.14   232.76     0  01:44        9.51
  SSHB54-I             STORAGE      0.70     8.54   232.39     0  01:43        8.53
  SSHBELC-I            STORAGE      1.34    10.12   232.88     0  01:44        8.32
  SSHBNOT-I            STORAGE      0.65     8.31   232.38     0  01:43        8.30
  SSHBPAL-I            STORAGE      2.62     6.59   227.82     0  01:44        6.03
  SSHBSAR-I            STORAGE      1.09    10.02   233.09     0  01:44        8.83
  SSHBSTM-I            STORAGE      1.66     9.80   232.18     0  01:44        8.64
  SSHBWEL-I            STORAGE      0.81     8.77   232.24     0  01:43        8.77
  SSHBWLV-I            STORAGE      2.01     9.07   231.05     0  01:44        8.24
  SSHBWSM-I            STORAGE      2.46     7.64   229.08     0  01:45        6.14
  SSIMELC-I            STORAGE      0.57     7.66   232.36     0  01:42        7.66
  SSIMPOR-I            STORAGE      0.68     7.99   231.50     0  01:45        7.99
  SSIMSAR-I            STORAGE      0.48     6.26   231.99     0  01:41        6.26
  SSIMSTM-I            STORAGE      0.62     8.10   232.25     0  01:43        8.10
  SSIMWEL-I            STORAGE      0.39     6.00   232.24     0  01:41        6.00
  SSTMARL-I            STORAGE      0.46     7.85   232.40     0  01:42        7.84
  SSTMDOM-I            STORAGE      0.30     8.56   232.77     0  01:43        8.52
  SWELDOM-I            STORAGE      0.29     7.51   232.65     0  01:42        7.51
  SWELMRY-I            STORAGE      0.28     5.34   232.14     0  01:41        5.34
  SWELVIC-I            STORAGE      0.34     5.43   231.97     0  01:41        5.43
  SWOLHOM-I            STORAGE      0.28     5.76   229.66     0  01:44        5.75
  SWSMARL-I            STORAGE      0.23     6.10   230.74     0  01:44        5.94
  SWSMHOM-I            STORAGE      0.30     6.46   230.66     0  01:44        6.45
  SXANALE-I            STORAGE      0.74     8.09   232.42     0  01:43        8.09
  SXANELG-I            STORAGE      0.78     8.70   232.78     0  01:43        8.18
  
  
  *******************
  Node Inflow Summary
  *******************
  
  -------------------------------------------------------------------------------------------------
                                  Maximum  Maximum                  Lateral       Total        Flow
                                  Lateral    Total  Time of Max      Inflow      Inflow     Balance
                                   Inflow   Inflow   Occurrence      Volume      Volume       Error
  Node                 Type           CMS      CMS  days hr:min    10^6 ltr    10^6 ltr     Percent
  -------------------------------------------------------------------------------------------------
  CCOROUT1             JUNCTION     0.000    3.923     0  01:45           0        14.4      -0.000
  SCANOUT1             JUNCTION     0.000   12.573     0  01:45           0        29.8       0.000
  XCAUBPAL             JUNCTION     0.000   11.527     0  01:38           0        59.7       0.307
  XSCANPAL             JUNCTION     0.000   12.747     0  01:43           0        29.8      -0.000
  XSRUBPAL             JUNCTION     0.000   23.105     0  01:45           0        49.3      -0.014
  SAUBOUT              OUTFALL      0.000   26.224     0  01:45           0        60.4       0.000
  SCANOUT              OUTFALL      0.000   12.642     0  01:44           0        29.8       0.000
  SRUBOUT              OUTFALL      0.000   17.521     0  01:46           0        50.3       0.000
  CAUBOUT              OUTFALL      0.000    8.008     0  01:41           0        60.2       0.000
  CCOROUT              OUTFALL      0.000    3.916     0  01:45           0        14.4       0.000
  CMRYOUT              OUTFALL      0.000    0.928     0  01:44           0        5.46       0.000
  CALEXAN-I            STORAGE      0.153    3.195     0  01:45        0.28        7.24      -0.078
  CAUBPAL-I            STORAGE      0.495   10.465     0  01:38       0.906        60.4       0.228
  CAUBPOR              STORAGE      0.000   13.209     0  01:35           0        57.2       0.223
  CAUBSPS              STORAGE      0.000    8.000     0  01:38           0        60.3       0.053
  CAUBWOL-I            STORAGE      1.146   11.972     0  01:36         2.1        59.8       0.217
  CAUBWSM-I            STORAGE      0.420   11.802     0  01:35       0.769        57.8       0.205
  CCANPRE-I            STORAGE      0.550    2.635     0  01:35        1.01        8.98      -0.055
  CCECROY-I            STORAGE      0.217    0.831     0  01:31       0.397        2.31      -0.049
  CCORDIV              STORAGE      0.000    4.030     0  01:41           0        14.4      -0.009
  CCORMID-I            STORAGE      1.632    4.230     0  01:40        2.99        14.4       0.023
  CELCGRF-I            STORAGE      2.142    2.310     0  01:45        3.93        3.99       0.001
  CELCING-I            STORAGE      0.812    2.049     0  01:33        1.49        3.66      -0.055
  CHEN90-I             STORAGE      1.618    4.242     0  01:35        2.97         4.5      -0.081
  CHIGMAU-I            STORAGE      1.380    2.908     0  01:36        2.53         3.2      -0.128
  CLIP25               STORAGE      0.000    6.873     0  01:35           0        38.9       0.223
  CLIP35               STORAGE      0.000    7.120     0  01:34           0        33.6       0.122
  CLIPELC-I            STORAGE      0.339    8.386     0  01:34        0.62        33.7       0.195
  CLIPNOT-I            STORAGE      1.652    6.770     0  01:44        3.03        27.9      -0.035
  CLIPSAR-I            STORAGE      1.826    6.966     0  01:34        3.35        29.8       0.208
  CLIPSMT-I            STORAGE      1.217    6.820     0  01:35        2.23        38.9       0.146
  CLIPWEL-I            STORAGE      2.089    4.523     0  01:34        3.83        25.9       0.067
  CLIPYAR              STORAGE      0.000    3.125     0  01:33           0          21       0.162
  CLOG80-I             STORAGE      1.177    3.030     0  01:35        2.17        5.99      -0.094
  CLOGCEC-I            STORAGE      2.123    2.123     0  01:45        3.88        4.17      -0.044
  CLOGELE-I            STORAGE      0.705    1.371     0  01:45        1.29        4.98       0.021
  CLOGQUE-I            STORAGE      0.441    1.076     0  01:45       0.808        2.73       0.049
  CLOGVIN-I            STORAGE      1.993    1.993     0  01:45        3.65        4.84       0.036
  CLOGWNK-I            STORAGE      1.110    1.627     0  01:45        2.03        5.92       0.018
  CLOGYEO-I            STORAGE      0.266    1.080     0  01:31       0.486        4.24       0.008
  CMCPBAN-I            STORAGE      1.610    3.911     0  01:44        2.95        17.4       0.067
  CMCPELG-I            STORAGE      0.789    2.876     0  01:34        1.45        14.3       0.003
  CMCPLOG-I            STORAGE      0.889    1.466     0  01:32        1.63        4.98      -0.003
  CMCPPAC-I            STORAGE      2.118    3.897     0  01:34        3.88        14.1      -0.099
  CMCPROS              STORAGE      0.000    2.120     0  01:32           0        12.8       0.004
  CMCPWIN-I            STORAGE      2.954    2.954     0  01:45        5.41        19.7       0.068
  CMRYCOR-I            STORAGE      0.566    4.126     0  01:39        1.04        17.4      -0.050
  CMRYCSO              STORAGE      0.000    1.400     0  01:39           0        5.95      -0.001
  CMRYWSM-I            STORAGE      0.269    4.148     0  01:36       0.492        16.4       0.089
  CNOTDOM-I            STORAGE      3.557    3.557     0  01:45        6.52        6.52       0.039
  CNOTSHB-I            STORAGE      1.599    1.910     0  01:45        2.93         5.7       0.507
  CPAC72-I             STORAGE      1.397    1.801     0  01:32        2.56        3.73       0.664
  CPAC75-I             STORAGE      1.629    2.302     0  01:45        2.98        4.06       0.084
  CPORBAN-I            STORAGE      1.564    3.166     0  01:32        2.87        6.69      -0.021
  CPORBUR-I            STORAGE      3.452    4.102     0  01:44        6.32        6.42      -0.016
  CPORCAN-I            STORAGE      1.132    2.799     0  01:35        2.07        7.98       0.026
  CPORDOM-I            STORAGE      1.664    2.463     0  01:32        3.05        8.83       0.016
  CPORGRE-I            STORAGE      2.183    2.183     0  01:45           4        7.09      -0.011
  CPORHOM-I            STORAGE      1.405    1.405     0  01:45        2.57        2.57      -0.043
  CPORLIP-I            STORAGE      0.799    9.943     0  01:35        1.46        46.8       0.214
  CPORSHB-I            STORAGE      1.403    3.083     0  01:33        2.57        10.5      -0.016
  CPORSPR-I            STORAGE      1.393    2.009     0  01:45        2.55        5.54       0.010
  CPORWLL-I            STORAGE      2.960    2.960     0  01:45        5.42        5.42       0.035
  CPREWAL              STORAGE      0.000    1.897     0  01:36           0        8.67       0.020
  CSARARL-I            STORAGE      1.870    2.404     0  01:45        3.43        4.09      -0.010
  CSARBUR-I            STORAGE      0.784    1.591     0  01:33        1.44        3.15       0.197
  CSIMELC-I            STORAGE      1.913    1.913     0  01:45        3.51        4.58       0.118
  CSIMPOR              STORAGE      0.000    2.126     0  01:34           0        6.04       0.050
  CSIMSAR-I            STORAGE      0.908    1.296     0  01:45        1.66        3.07      -0.437
  CSIMSTM-I            STORAGE      1.631    2.293     0  01:45        2.99        6.18      -0.017
  CSIMWEL-I            STORAGE      1.063    1.063     0  01:45        1.95        1.95       0.388
  CSMTING-I            STORAGE      0.980    2.170     0  01:33         1.8        3.98      -0.151
  CSTMSHB-I            STORAGE      1.687    1.687     0  01:45        3.09        3.09       0.406
  CWALPUR-I            STORAGE      0.447    4.179     0  01:36       0.819        15.9      -0.050
  CWELDOM-I            STORAGE      1.815    1.815     0  01:45        3.33        3.33       0.133
  CWELSHB-I            STORAGE      0.613    2.022     0  01:34        1.12        3.74       0.556
  CWSMARL-I            STORAGE      1.515    1.515     0  01:45        2.78        2.78       0.016
  CWSMCAN-I            STORAGE      0.990    1.779     0  01:34        1.81        4.52       0.026
  CWSMETH-I            STORAGE      1.109    1.766     0  01:45        2.03        3.84      -0.008
  CWSMWAL-I            STORAGE      1.203    2.426     0  01:34         2.2        6.39       0.110
  SALEMAU-I            STORAGE      1.912    4.945     0  01:43         3.5        9.25      -0.005
  SALVNOT-I            STORAGE      0.991   11.459     0  01:43        1.82        30.4       0.071
  SALVSAR-I            STORAGE      0.784   16.059     0  01:43        1.44          37      -0.049
  SALVWEL-I            STORAGE      2.100   15.963     0  01:43        3.85        35.9      -0.624
  SBUR28               STORAGE      0.000   18.923     0  01:44           0        41.3      -0.001
  SBUREIN-I            STORAGE      1.172   22.444     0  01:44        2.15        43.4      -0.051
  SBURELC-I            STORAGE      1.481   16.944     0  01:43        2.71        39.7      -0.051
  SBURPOR-I            STORAGE      1.417   22.949     0  01:44         2.6          46       0.017
  SBURSMT-I            STORAGE      0.863   18.947     0  01:43        1.58        41.3      -0.016
  SCANPAL              STORAGE      0.000   12.672     0  01:43           0        29.8      -0.018
  SCANPRE-I            STORAGE      0.997    5.937     0  01:43        1.83        16.5       0.097
  SCANWOL-I            STORAGE      3.294   12.831     0  01:43        6.04        29.8       0.019
  SCANWSM-I            STORAGE      1.365    8.379     0  01:43         2.5        21.4       0.014
  SDUM1-I              STORAGE      1.987    5.521     0  01:42        3.64        11.3      -0.026
  SDUM2-I              STORAGE      2.957    4.166     0  01:41        5.41        7.87       0.445
  SDUM3-I              STORAGE      1.422    1.968     0  01:40        2.61        2.63      -0.718
  SDUM4                STORAGE      0.000    6.333     0  01:40           0        11.4      -0.540
  SDUM5                STORAGE      0.000    4.884     0  01:43           0        11.5       0.237
  SELCDOM-I            STORAGE      1.714    1.974     0  01:43        3.14        3.14       0.577
  SLARWIL-I            STORAGE      1.610    8.505     0  01:42        2.95        22.5       0.102
  SLENWSM-I            STORAGE      1.798   20.465     0  01:45         3.3        49.3      -0.037
  SMAULOG-I            STORAGE      1.574    3.418     0  01:43        2.88        6.26       0.261
  SMCP85-I             STORAGE      2.067    7.266     0  01:38         3.8        14.9       0.451
  SMCPMCD-I            STORAGE      1.407    9.442     0  01:42        2.58        24.7      -0.062
  SMCPNOT              STORAGE      0.000   11.273     0  01:43           0        28.8       0.079
  SMYRWIN-I            STORAGE      1.546    3.180     0  01:42        2.83        2.87      -0.092
  SNOTMYR-I            STORAGE      1.186    3.512     0  01:41        2.17        6.79       1.350
  SNOTWLL-I            STORAGE      1.186    1.186     0  01:45        2.17        2.17       0.631
  SPORDOM-I            STORAGE      0.000    3.009     0  01:45           0        4.08      -0.228
  SPORGRE-I            STORAGE      0.546    3.029     0  01:43           1        4.08      -0.008
  SPORSHB-I            STORAGE      1.662   22.734     0  01:45        3.05        53.2       0.000
  SPORSPR-I            STORAGE      0.533    2.559     0  01:44       0.977        3.08      -0.031
  SPORWLL-I            STORAGE      1.134    1.163     0  01:44         2.1         2.1      -0.054
  SRUB02               STORAGE      0.000   15.000     0  01:46           0        50.3      -0.002
  SRUBPAL-I            STORAGE      0.495   21.344     0  01:46       0.906        50.3      -0.006
  SRUBWOL-I            STORAGE      0.000   22.359     0  01:45           0        49.3      -0.026
  SSHB33               STORAGE      0.000   11.279     0  01:43           0        32.1       0.007
  SSHB54-I             STORAGE      1.599    7.168     0  01:43        2.93        20.5      -0.204
  SSHBELC-I            STORAGE      1.836   10.885     0  01:44        3.36        32.1       0.080
  SSHBNOT-I            STORAGE      1.837    8.743     0  01:41        3.37        21.5      -0.677
  SSHBPAL-I            STORAGE      2.050   26.652     0  01:45        3.76        60.4      -0.005
  SSHBSAR-I            STORAGE      2.255    8.926     0  01:47        4.13        29.1       1.148
  SSHBSTM-I            STORAGE      1.988   15.257     0  01:44        3.64        39.8      -0.031
  SSHBWEL-I            STORAGE      1.240    9.585     0  01:43        2.27        26.7      -0.136
  SSHBWLV-I            STORAGE      3.361   17.836     0  01:45        6.18          46       0.018
  SSHBWSM-I            STORAGE      1.874   24.628     0  01:45        3.43        56.6      -0.006
  SSIMELC-I            STORAGE      1.913    3.318     0  01:37        3.51        8.44      -0.524
  SSIMPOR-I            STORAGE      0.667    5.265     0  01:42        1.22        14.7      -0.077
  SSIMSAR-I            STORAGE      1.546    2.330     0  01:45        2.83        5.72       0.580
  SSIMSTM-I            STORAGE      1.979    4.896     0  01:42        3.63        13.5      -0.108
  SSIMWEL-I            STORAGE      0.594    2.943     0  01:39        1.09        3.21      -0.305
  SSTMARL-I            STORAGE      0.815    1.025     0  01:38        1.49         1.5       0.371
  SSTMDOM-I            STORAGE      0.531    2.567     0  01:44       0.972         4.1      -0.502
  SWELDOM-I            STORAGE      1.815    2.647     0  01:42        3.33        3.33       0.937
  SWELMRY-I            STORAGE      0.560    2.888     0  01:40       0.986        1.07      -2.474
  SWELVIC-I            STORAGE      0.561    3.567     0  01:40       0.987        2.55       0.098
  SWOLHOM-I            STORAGE      1.312    1.312     0  01:45         2.4         2.4       0.074
  SWSMARL-I            STORAGE      0.757    0.899     0  01:39        1.39        1.39      -0.155
  SWSMHOM-I            STORAGE      0.555    1.729     0  01:39        1.02        2.41       0.032
  SXANALE-I            STORAGE      3.179    6.656     0  01:43        5.83        14.5       0.121
  SXANELG-I            STORAGE      2.907    8.032     0  01:43        5.33        19.5      -0.623
  
  
  **********************
  Node Surcharge Summary
  **********************
  
  Surcharging occurs when water rises above the top of the highest conduit.
  ---------------------------------------------------------------------
                                               Max. Height   Min. Depth
                                   Hours       Above Crown    Below Rim
  Node                 Type      Surcharged         Meters       Meters
  ---------------------------------------------------------------------
  SCANOUT1             JUNCTION        0.46          2.385        4.590
  XCAUBPAL             JUNCTION        0.32          1.690        0.000
  XSCANPAL             JUNCTION        0.11          2.265        2.665
  
  
  *********************
  Node Flooding Summary
  *********************
  
  Flooding refers to all water that overflows a node, whether it ponds or not.
  --------------------------------------------------------------------------
                                                             Total   Maximum
                                 Maximum   Time of Max       Flood    Ponded
                        Hours       Rate    Occurrence      Volume     Depth
  Node                 Flooded       CMS   days hr:min    10^6 ltr    Meters
  --------------------------------------------------------------------------
  XCAUBPAL                0.01     0.379      0  01:43       0.011     0.000
  CALEXAN-I               0.59     3.194      0  01:45       3.348     0.000
  CAUBPAL-I               0.01     0.617      0  01:43       0.013     0.000
  CCANPRE-I               0.18     1.886      0  01:35       0.322     0.000
  CCECROY-I               1.15     0.826      0  01:45       2.125     0.000
  CELCGRF-I               0.48     2.310      0  01:45       1.821     0.000
  CHEN90-I                0.02     3.939      0  01:35       0.066     0.000
  CHIGMAU-I               0.42     2.908      0  01:36       1.770     0.000
  CLIP25                  0.01     2.611      0  01:35       0.011     0.000
  CLIP35                  0.19     4.487      0  01:34       0.632     0.000
  CLIPNOT-I               0.70     6.770      0  01:44       8.261     0.000
  CLIPSMT-I               0.01     1.189      0  01:35       0.007     0.000
  CLIPWEL-I               0.01     0.961      0  01:35       0.005     0.000
  CLIPYAR                 0.03     1.037      0  01:34       0.036     0.000
  CLOG80-I                0.01     2.212      0  01:35       0.005     0.000
  CLOGCEC-I               0.49     1.335      0  01:45       0.998     0.000
  CLOGELE-I               0.91     1.137      0  01:45       1.792     0.000
  CLOGQUE-I               0.58     1.076      0  01:45       1.434     0.000
  CLOGVIN-I               0.27     0.871      0  01:45       0.488     0.000
  CLOGWNK-I               0.93     1.626      0  01:45       2.813     0.000
  CLOGYEO-I               0.48     0.327      0  01:45       0.275     0.000
  CMCPBAN-I               0.47     3.911      0  01:44       3.021     0.000
  CMCPELG-I               0.02     2.703      0  01:34       0.112     0.000
  CMCPLOG-I               0.21     0.696      0  01:45       0.343     0.000
  CMCPPAC-I               0.09     0.848      0  01:35       0.110     0.000
  CMCPROS                 0.01     1.423      0  01:34       0.023     0.000
  CMCPWIN-I               0.01     0.715      0  01:34       0.002     0.000
  CMRYCSO                 0.51     0.472      0  01:39       0.490     0.000
  CNOTDOM-I               0.82     3.247      0  01:45       3.751     0.000
  CNOTSHB-I               0.75     1.442      0  01:45       1.498     0.000
  CPAC72-I                0.19     1.195      0  01:34       0.236     0.000
  CPAC75-I                0.73     2.302      0  01:45       2.928     0.000
  CPORBAN-I               0.01     0.830      0  01:32       0.010     0.000
  CPORBUR-I               0.47     4.102      0  01:44       2.591     0.000
  CPORCAN-I               0.01     0.802      0  01:35       0.004     0.000
  CPORDOM-I               0.26     2.002      0  01:45       0.908     0.000
  CPORGRE-I               0.32     1.426      0  01:45       1.074     0.000
  CPORHOM-I               0.21     0.962      0  01:45       0.545     0.000
  CPORLIP-I               0.01     0.764      0  01:35       0.001     0.000
  CPORSHB-I               0.03     0.254      0  01:43       0.015     0.000
  CPORSPR-I               0.57     2.009      0  01:45       2.445     0.000
  CPORWLL-I               0.63     2.577      0  01:45       2.673     0.000
  CSARARL-I               0.60     2.404      0  01:45       2.668     0.000
  CSARBUR-I               0.22     0.696      0  01:33       0.401     0.000
  CSIMELC-I               0.35     1.203      0  01:45       0.925     0.000
  CSIMPOR                 0.01     0.314      0  01:35       0.001     0.000
  CSIMSAR-I               0.86     1.296      0  01:45       2.009     0.000
  CSIMSTM-I               0.53     2.293      0  01:45       2.173     0.000
  CSIMWEL-I               0.90     0.968      0  01:45       1.116     0.000
  CSMTING-I               0.20     0.750      0  01:33       0.238     0.000
  CSTMSHB-I               0.29     1.319      0  01:45       0.895     0.000
  CWELDOM-I               0.44     1.255      0  01:45       0.903     0.000
  CWELSHB-I               0.45     1.966      0  01:34       1.228     0.000
  CWSMARL-I               0.46     1.435      0  01:45       1.257     0.000
  CWSMCAN-I               0.12     0.233      0  01:37       0.054     0.000
  CWSMETH-I               0.28     1.766      0  01:45       1.129     0.000
  SALEMAU-I               0.07     2.468      0  01:45       0.420     0.000
  SALVNOT-I               0.03     1.551      0  01:43       0.056     0.000
  SALVSAR-I               0.01     2.380      0  01:45       0.008     0.000
  SALVWEL-I               0.01     1.225      0  01:43       0.002     0.000
  SBUR28                  0.01     3.776      0  01:44       0.005     0.000
  SBUREIN-I               0.01     8.706      0  01:44       0.022     0.000
  SBURELC-I               0.01     1.762      0  01:45       0.002     0.000
  SBURSMT-I               0.01     2.500      0  01:44       0.005     0.000
  SDUM1-I                 0.09     3.348      0  01:46       0.744     0.000
  SDUM2-I                 0.07     1.048      0  01:45       0.160     0.000
  SDUM3-I                 0.10     0.822      0  01:45       0.184     0.000
  SDUM4                   0.05     1.110      0  01:43       0.059     0.000
  SDUM5                   0.04     0.738      0  01:45       0.076     0.000
  SELCDOM-I               0.01     0.282      0  01:44       0.001     0.000
  SLARWIL-I               0.06     2.450      0  01:45       0.343     0.000
  SMCP85-I                0.05     1.335      0  01:43       0.127     0.000
  SMCPMCD-I               0.01     0.689      0  01:43       0.001     0.000
  SMCPNOT                 0.01     0.915      0  01:44       0.007     0.000
  SMYRWIN-I               0.07     2.709      0  01:42       0.260     0.000
  SNOTMYR-I               0.01     1.605      0  01:43       0.015     0.000
  SNOTWLL-I               0.07     0.979      0  01:44       0.161     0.000
  SSHB54-I                0.01     1.818      0  01:43       0.017     0.000
  SSHBNOT-I               0.01     1.854      0  01:43       0.015     0.000
  SSHBWEL-I               0.02     1.936      0  01:44       0.074     0.000
  SSIMSAR-I               0.09     2.220      0  01:45       0.432     0.000
  SSIMSTM-I               0.04     0.241      0  01:43       0.026     0.000
  SSIMWEL-I               0.01     0.496      0  01:41       0.007     0.000
  SSTMARL-I               0.01     0.099      0  01:42       0.000     0.000
  SSTMDOM-I               0.01     0.813      0  01:43       0.001     0.000
  SWELDOM-I               0.01     1.966      0  01:42       0.012     0.000
  SWELMRY-I               0.01     1.564      0  01:41       0.010     0.000
  SWELVIC-I               0.12     2.783      0  01:41       0.652     0.000
  SXANALE-I               0.06     3.016      0  01:43       0.383     0.000
  SXANELG-I               0.01     0.684      0  01:43       0.003     0.000
  
  
  **********************
  Storage Volume Summary
  **********************
  
  --------------------------------------------------------------------------------------------------
                         Average     Avg  Evap Exfil       Maximum     Max    Time of Max    Maximum
                          Volume    Pcnt  Pcnt  Pcnt        Volume    Pcnt     Occurrence    Outflow
  Storage Unit           1000 m3    Full  Loss  Loss       1000 m3    Full    days hr:min        CMS
  --------------------------------------------------------------------------------------------------
  CALEXAN-I                0.021      22     0     0         0.096     100       0  01:34      2.098
  CAUBPAL-I                0.012      12     0     0         0.098     100       0  01:43      8.000
  CAUBPOR                  0.018      18     0     0         0.099     100       0  01:35     11.445
  CAUBSPS                  0.001       1     0     0         0.002       2       0  01:41      8.008
  CAUBWOL-I                0.014      14     0     0         0.099     100       0  01:43     11.527
  CAUBWSM-I                0.014      15     0     0         0.099     100       0  01:43     10.968
  CCANPRE-I                0.011      11     0     0         0.096     100       0  01:35      1.897
  CCECROY-I                0.024      26     0     0         0.090     100       0  01:31      0.073
  CCORDIV                  0.002       3     0     0         0.085      90       0  01:45      3.923
  CCORMID-I                0.004       4     0     0         0.095      97       0  01:44      4.030
  CELCGRF-I                0.023      24     0     0         0.096     100       0  01:32      1.465
  CELCING-I                0.026      26     0     0         0.098     100       0  01:35      2.253
  CHEN90-I                 0.020      20     0     0         0.096     100       0  01:35      1.771
  CHIGMAU-I                0.019      20     0     0         0.096     100       0  01:35      0.449
  CLIP25                   0.019      20     0     0         0.098     100       0  01:35      6.739
  CLIP35                   0.020      21     0     0         0.098     100       0  01:34      4.524
  CLIPELC-I                0.020      21     0     0         0.098      99       0  01:35      7.120
  CLIPNOT-I                0.025      26     0     0         0.097     100       0  01:34      3.125
  CLIPSAR-I                0.022      22     0     0         0.098     100       0  01:35      6.414
  CLIPSMT-I                0.020      20     0     0         0.098     100       0  01:35      6.873
  CLIPWEL-I                0.025      25     0     0         0.098     100       0  01:35      4.795
  CLIPYAR                  0.025      26     0     0         0.097     100       0  01:34      2.876
  CLOG80-I                 0.020      21     0     0         0.098     100       0  01:35      2.933
  CLOGCEC-I                0.028      30     0     0         0.095     100       0  01:30      0.788
  CLOGELE-I                0.033      34     0     0         0.095     100       0  01:30      0.729
  CLOGQUE-I                0.031      33     0     0         0.095     100       0  01:30      0.346
  CLOGVIN-I                0.032      34     0     0         0.096     100       0  01:30      1.123
  CLOGWNK-I                0.033      34     0     0         0.095     100       0  01:30      0.942
  CLOGYEO-I                0.032      33     0     0         0.096     100       0  01:31      0.920
  CMCPBAN-I                0.023      24     0     0         0.097     100       0  01:34      1.922
  CMCPELG-I                0.022      23     0     0         0.097     100       0  01:34      2.079
  CMCPLOG-I                0.026      27     0     0         0.096     100       0  01:33      1.384
  CMCPPAC-I                0.022      23     0     0         0.096     100       0  01:34      2.866
  CMCPROS                  0.022      23     0     0         0.097     100       0  01:34      1.531
  CMCPWIN-I                0.024      25     0     0         0.097     100       0  01:34      3.073
  CMRYCOR-I                0.009       9     0     0         0.095      97       0  01:45      4.156
  CMRYCSO                  0.018      19     0     0         0.095     100       0  01:37      0.928
  CMRYWSM-I                0.006       6     0     0         0.096      98       0  01:45      3.605
  CNOTDOM-I                0.026      27     0     0         0.096     100       0  01:28      0.842
  CNOTSHB-I                0.030      31     0     0         0.096     100       0  01:31      1.273
  CPAC72-I                 0.019      20     0     0         0.095     100       0  01:34      1.188
  CPAC75-I                 0.014      15     0     0         0.092     100       0  01:35      0.906
  CPORBAN-I                0.026      27     0     0         0.098     100       0  01:32      3.117
  CPORBUR-I                0.023      24     0     0         0.097     100       0  01:32      2.245
  CPORCAN-I                0.011      11     0     0         0.097     100       0  01:35      2.176
  CPORDOM-I                0.019      19     0     0         0.099     100       0  01:34      2.139
  CPORGRE-I                0.018      18     0     0         0.099     100       0  01:32      1.497
  CPORHOM-I                0.013      13     0     0         0.096     100       0  01:35      1.352
  CPORLIP-I                0.019      19     0     0         0.099     100       0  01:35     10.390
  CPORSHB-I                0.018      19     0     0         0.098     100       0  01:42      2.999
  CPORSPR-I                0.016      17     0     0         0.098     100       0  01:31      0.809
  CPORWLL-I                0.016      16     0     0         0.099     100       0  01:31      0.681
  CPREWAL                  0.011      12     0     0         0.097     100       0  01:36      2.002
  CSARARL-I                0.020      21     0     0         0.095     100       0  01:33      1.011
  CSARBUR-I                0.024      25     0     0         0.096     100       0  01:33      1.547
  CSIMELC-I                0.018      19     0     0         0.095     100       0  01:30      0.710
  CSIMPOR                  0.012      12     0     0         0.096     100       0  01:35      1.865
  CSIMSAR-I                0.018      21     0     0         0.087     100       0  01:31      0.247
  CSIMSTM-I                0.020      21     0     0         0.095     100       0  01:31      0.884
  CSIMWEL-I                0.011      22     0     0         0.048     100       0  01:30      0.198
  CSMTING-I                0.023      24     0     0         0.097     100       0  01:33      1.923
  CSTMSHB-I                0.021      21     0     0         0.097     100       0  01:34      1.425
  CWALPUR-I                0.012      12     0     0         0.097      99       0  01:36      3.912
  CWELDOM-I                0.016      17     0     0         0.095     100       0  01:34      0.991
  CWELSHB-I                0.019      20     0     0         0.095     100       0  01:34      0.678
  CWSMARL-I                0.007      10     0     0         0.070     100       0  01:33      0.608
  CWSMCAN-I                0.008      10     0     0         0.084     100       0  01:36      1.465
  CWSMETH-I                0.008      11     0     0         0.077     100       0  01:33      1.020
  CWSMWAL-I                0.009       9     0     0         0.094      98       0  01:42      2.275
  SALEMAU-I                0.010       5     0     0         0.189     100       0  01:43      3.576
  SALVNOT-I                0.003       7     0     0         0.040     100       0  01:43     11.400
  SALVSAR-I                0.004       8     0     0         0.049     100       0  01:45     15.492
  SALVWEL-I                0.004       7     0     0         0.049     100       0  01:43     15.296
  SBUR28                   0.004       8     0     0         0.052     100       0  01:44     21.280
  SBUREIN-I                0.004       9     0     0         0.052     100       0  01:44     21.542
  SBURELC-I                0.004       8     0     0         0.050     100       0  01:45     18.096
  SBURPOR-I                0.005       9     0     0         0.051      98       0  01:44     19.005
  SBURSMT-I                0.004       8     0     0         0.049     100       0  01:44     18.923
  SCANPAL                  0.005       3     0     0         0.107      64       0  01:45     12.573
  SCANPRE-I                0.005       7     0     0         0.067      95       0  01:44      5.802
  SCANWOL-I                0.007       7     0     0         0.108      96       0  01:45     12.747
  SCANWSM-I                0.005       7     0     0         0.062      91       0  01:45      8.329
  SDUM1-I                  0.004       4     0     0         0.080     100       0  01:43      5.092
  SDUM2-I                  0.002       5     0     0         0.055     100       0  01:42      3.696
  SDUM3-I                  0.002       4     0     0         0.043     100       0  01:42      1.544
  SDUM4                    0.004       5     0     0         0.079     100       0  01:43      4.884
  SDUM5                    0.004       5     0     0         0.077     100       0  01:44      4.253
  SELCDOM-I                0.001       2     0     0         0.039     100       0  01:44      2.042
  SLARWIL-I                0.006       6     0     0         0.095     100       0  01:43      8.087
  SLENWSM-I                0.005       9     0     0         0.051      95       0  01:44     22.359
  SMAULOG-I                0.007       5     0     0         0.139     100       0  01:43      3.151
  SMCP85-I                 0.007       5     0     0         0.154     100       0  01:43      6.613
  SMCPMCD-I                0.003      11     0     0         0.031     100       0  01:43      8.857
  SMCPNOT                  0.003       7     0     0         0.038     100       0  01:44     10.482
  SMYRWIN-I                0.006       5     0     0         0.130     100       0  01:42      1.301
  SNOTMYR-I                0.007       5     0     0         0.130     100       0  01:43      3.228
  SNOTWLL-I                0.002       6     0     0         0.038     100       0  01:43      1.148
  SPORDOM-I                0.002       5     0     0         0.040      95       0  01:44      3.439
  SPORGRE-I                0.001       3     0     0         0.040      96       0  01:44      3.009
  SPORSHB-I                0.008       8     0     0         0.105      98       0  01:44     22.816
  SPORSPR-I                0.001       3     0     0         0.039      96       0  01:44      2.494
  SPORWLL-I                0.001       2     0     0         0.040      98       0  01:44      2.031
  SRUB02                   0.006      15     0     0         0.036      84       0  01:46     17.521
  SRUBPAL-I                0.004      10     0     0         0.035      81       0  01:47     15.000
  SRUBWOL-I                0.004       9     0     0         0.050      96       0  01:45     23.105
  SSHB33                   0.006       7     0     0         0.098     100       0  01:44     11.057
  SSHB54-I                 0.006       5     0     0         0.110     100       0  01:43      6.636
  SSHBELC-I                0.006       7     0     0         0.099     100       0  01:44     11.279
  SSHBNOT-I                0.006       6     0     0         0.102     100       0  01:43      8.354
  SSHBPAL-I                0.010       8     0     0         0.115      96       0  01:44     26.224
  SSHBSAR-I                0.006       6     0     0         0.098     100       0  01:44      9.178
  SSHBSTM-I                0.007       7     0     0         0.090      99       0  01:44     14.609
  SSHBWEL-I                0.006       6     0     0         0.107     100       0  01:43      9.181
  SSHBWLV-I                0.008       7     0     0         0.110      98       0  01:44     18.141
  SSHBWSM-I                0.009       7     0     0         0.117      96       0  01:45     24.753
  SSIMELC-I                0.004       6     0     0         0.070      99       0  01:42      2.743
  SSIMPOR-I                0.004       6     0     0         0.072      97       0  01:45      4.987
  SSIMSAR-I                0.004       5     0     0         0.077     100       0  01:41      1.847
  SSIMSTM-I                0.004       6     0     0         0.074     100       0  01:43      4.615
  SSIMWEL-I                0.003       5     0     0         0.067     100       0  01:41      2.723
  SSTMARL-I                0.003       6     0     0         0.045     100       0  01:42      1.190
  SSTMDOM-I                0.002       4     0     0         0.041     100       0  01:43      3.049
  SWELDOM-I                0.003       4     0     0         0.078     100       0  01:42      3.167
  SWELMRY-I                0.003       4     0     0         0.076     100       0  01:41      0.614
  SWELVIC-I                0.003       4     0     0         0.066     100       0  01:41      2.375
  SWOLHOM-I                0.002       5     0     0         0.037      97       0  01:44      1.559
  SWSMARL-I                0.002       4     0     0         0.038      99       0  01:44      1.223
  SWSMHOM-I                0.002       5     0     0         0.038      95       0  01:44      1.325
  SXANALE-I                0.007       5     0     0         0.142     100       0  01:43      5.201
  SXANELG-I                0.007       6     0     0         0.111     100       0  01:43      6.940
  
  
  ***********************
  Outfall Loading Summary
  ***********************
  
  -----------------------------------------------------------
                         Flow       Avg       Max       Total
                         Freq      Flow      Flow      Volume
  Outfall Node           Pcnt       CMS       CMS    10^6 ltr
  -----------------------------------------------------------
  SAUBOUT               95.73     2.920    26.224      60.369
  SCANOUT               87.52     1.579    12.642      29.839
  SRUBOUT               95.48     2.438    17.521      50.265
  CAUBOUT               95.80     2.911     8.008      60.222
  CCOROUT               95.08     0.703     3.916      14.437
  CMRYOUT               95.21     0.266     0.928       5.460
  -----------------------------------------------------------
  System                94.14    10.815    64.186     220.591
  
  
  ********************
  Link Flow Summary
  ********************
  
  -----------------------------------------------------------------------------
                                 Maximum  Time of Max   Maximum    Max/    Max/
                                  |Flow|   Occurrence   |Veloc|    Full    Full
  Link                 Type          CMS  days hr:min     m/sec    Flow   Depth
  -----------------------------------------------------------------------------
  CHEN90               CONDUIT     2.933     0  01:35      1.58    1.81    1.00
  CHIGMAU              CONDUIT     1.769     0  01:36      1.04    1.76    1.00
  CPORSHB              CONDUIT     2.999     0  01:34      4.57    1.79    1.00
  CPORDOM              CONDUIT     2.139     0  01:32      3.26    2.10    1.00
  CPORGRE              CONDUIT     1.497     0  01:32      2.28    1.48    1.00
  CPORSPR              CONDUIT     0.809     0  01:30      1.77    0.86    1.00
  CPORWLL              CONDUIT     0.681     0  01:31      1.56    1.09    1.00
  CPORBAN              CONDUIT     3.117     0  01:32      4.75    1.83    1.00
  CPORBUR              CONDUIT     2.245     0  01:32      3.42    2.84    1.00
  CSMTING              CONDUIT     1.923     0  01:34      4.22    2.11    1.00
  CSTMSHB              CONDUIT     1.425     0  01:33      3.12    3.70    1.00
  CELCING              CONDUIT     2.253     0  01:33      3.43    1.32    1.00
  CELCGRF              CONDUIT     1.465     0  01:33      3.21    2.78    1.00
  CWELSHB              CONDUIT     0.678     0  02:01      1.42    0.82    1.00
  CWELDOM              CONDUIT     0.991     0  01:34      2.17    1.69    1.00
  CNOTSHB              CONDUIT     1.273     0  01:31      2.79    2.42    1.00
  CNOTDOM              CONDUIT     0.842     0  01:28      1.85    1.54    1.00
  CPAC72               CONDUIT     1.188     0  01:33      1.81    1.36    1.00
  CPAC75               CONDUIT     0.906     0  01:32      1.39    0.68    1.00
  CLOGYEO              CONDUIT     0.920     0  01:32      2.02    2.65    1.00
  CLOGWNK              CONDUIT     0.942     0  01:31      2.06    2.77    1.00
  CAUBWOL              CONDUIT    11.527     0  01:38      2.88    2.89    1.00
  XCAUBPAL             CONDUIT    10.023     0  01:38      1.15    0.77    1.00
  CAUBWSM              CONDUIT    10.968     0  01:36      2.64    2.28    1.00
  CAUBPOR              CONDUIT    11.445     0  01:35      3.12    3.54    1.00
  CPORLIP              CONDUIT    10.390     0  01:35      3.11    2.37    1.00
  CLIP25               CONDUIT     6.739     0  01:35      2.01    2.01    1.00
  CLIPSMT              CONDUIT     6.873     0  01:35      2.05    2.05    1.00
  CLIP35               CONDUIT     4.524     0  01:35      1.35    1.44    1.00
  CLIPELC              CONDUIT     7.120     0  01:34      2.13    2.27    1.00
  CLIPSAR              CONDUIT     6.414     0  01:34      2.17    2.28    1.00
  CLIPWEL              CONDUIT     4.353     0  01:34      1.75    1.93    1.00
  CLIPYAR              CONDUIT     2.876     0  01:34      1.20    1.34    1.00
  CLIPNOT              CONDUIT     3.125     0  01:33      1.31    1.46    1.00
  CMCPWIN              CONDUIT     2.850     0  01:44      1.19    1.36    1.00
  CMCPBAN              CONDUIT     1.804     0  02:42      0.79    0.61    1.00
  CMCPELG              CONDUIT     2.079     0  01:44      0.87    0.89    1.00
  CMCPROS              CONDUIT     1.531     0  02:41      0.88    0.73    1.00
  CMCPPAC              CONDUIT     2.120     0  01:32      1.09    1.14    1.00
  CMCPLOG              CONDUIT     1.384     0  01:34      1.82    1.67    1.00
  CALEXAN              CONDUIT     2.255     0  01:34      1.22    1.49    1.00
  CLOG80               CONDUIT     2.098     0  01:35      1.13    1.31    1.00
  CLOGELE              CONDUIT     0.729     0  01:30      1.60    2.17    1.00
  CLOGVIN              CONDUIT     0.665     0  01:42      1.46    2.02    1.00
  CLOGQUE              CONDUIT     0.457     0  01:47      1.00    1.70    1.00
  CLOGCEC              CONDUIT     0.346     0  01:30      0.76    0.90    1.00
  CCECROY              CONDUIT     0.722     0  01:31      1.58    1.35    1.00
[...]
  CLOGVIN                 1.00   0.04  0.00  0.00  0.96  0.00  0.00  0.00  0.34  0.00
  CLOGQUE                 1.00   0.04  0.00  0.00  0.96  0.00  0.00  0.00  0.44  0.00
  CLOGCEC                 1.00   0.04  0.00  0.00  0.96  0.00  0.00  0.00  0.45  0.00
  CCECROY                 1.00   0.04  0.00  0.00  0.96  0.00  0.00  0.00  0.57  0.00
  CSARBUR                 1.00   0.04  0.00  0.00  0.79  0.00  0.00  0.16  0.27  0.00
  CSARARL                 1.00   0.04  0.05  0.00  0.90  0.01  0.00  0.00  0.44  0.00
  CCOROUT1                1.00   0.04  0.00  0.00  0.43  0.53  0.00  0.00  0.03  0.00
  CCORMID                 1.00   0.04  0.00  0.00  0.67  0.29  0.00  0.00  0.00  0.00
  CMRYCOR                 1.00   0.04  0.00  0.00  0.95  0.00  0.00  0.00  0.58  0.00
  CMRYCSO                 1.00   0.00  0.00  0.00  1.00  0.00  0.00  0.00  0.00  0.00
  CMRYWSM                 1.00   0.04  0.00  0.00  0.96  0.00  0.00  0.00  0.00  0.00
  CWALPUR                 1.00   0.04  0.00  0.00  0.96  0.00  0.00  0.00  0.48  0.00
  CWSMWAL                 1.00   0.04  0.00  0.00  0.53  0.00  0.00  0.42  0.13  0.00
  CWSMCAN                 1.00   0.04  0.00  0.00  0.96  0.00  0.00  0.00  0.68  0.00
  CWSMETH                 1.00   0.04  0.05  0.00  0.91  0.00  0.00  0.00  0.71  0.00
  CWSMARL                 1.00   0.09  0.05  0.00  0.86  0.00  0.00  0.00  0.74  0.00
  CPREWAL                 1.00   0.04  0.00  0.00  0.96  0.00  0.00  0.00  0.45  0.00
  CCANPRE                 1.00   0.04  0.00  0.00  0.96  0.00  0.00  0.00  0.41  0.00
  CPORCAN                 1.00   0.04  0.00  0.00  0.96  0.00  0.00  0.00  0.52  0.00
  CSIMPOR                 1.00   0.04  0.00  0.00  0.96  0.00  0.00  0.00  0.46  0.00
  CPORHOM                 1.00   0.04  0.00  0.00  0.93  0.03  0.00  0.00  0.49  0.00
  CSIMSTM                 1.00   0.04  0.00  0.00  0.96  0.00  0.00  0.00  0.55  0.00
  CSIMELC                 1.00   0.04  0.00  0.00  0.96  0.00  0.00  0.00  0.63  0.00
  CSIMSAR                 1.00   0.04  0.00  0.00  0.96  0.00  0.00  0.00  0.67  0.00
  CSIMWEL                 1.00   0.04  0.00  0.00  0.55  0.00  0.00  0.41  0.25  0.00
  CAUBSPS                 1.00   0.00  0.00  0.00  1.00  0.00  0.00  0.00  0.00  0.00
  SSHBPAL                 1.00   0.00  0.00  0.00  1.00  0.00  0.00  0.00  0.00  0.00
  SSHBWSM                 1.00   0.00  0.00  0.00  1.00  0.00  0.00  0.00  0.00  0.00
  SPORSHB                 1.00   0.00  0.00  0.00  1.00  0.00  0.00  0.00  0.00  0.00
  SPORDOM                 1.00   0.00  0.00  0.00  1.00  0.00  0.00  0.00  0.00  0.00
  SPORGRE                 1.00   0.00  0.04  0.00  0.95  0.00  0.00  0.00  0.74  0.00
  SPORSPR                 1.00   0.04  0.11  0.00  0.85  0.00  0.00  0.00  0.80  0.00
  SPORWLL                 1.00   0.15  0.04  0.00  0.81  0.00  0.00  0.00  0.84  0.00
  SSHBWLV                 1.00   0.00  0.00  0.00  1.00  0.00  0.00  0.00  0.00  0.00
  SSHBSTM                 1.00   0.00  0.00  0.00  1.00  0.00  0.00  0.00  0.00  0.00
  SSTMDOM                 1.00   0.00  0.04  0.00  0.96  0.00  0.00  0.00  0.83  0.00
  SELCDOM                 1.00   0.04  0.10  0.00  0.79  0.06  0.00  0.00  0.77  0.00
  SSHB33                  1.00   0.00  0.00  0.00  1.00  0.00  0.00  0.00  0.00  0.00
  SSHBELC                 1.00   0.00  0.00  0.00  1.00  0.00  0.00  0.00  0.00  0.00
  SSHBSAR                 1.00   0.00  0.00  0.00  1.00  0.00  0.00  0.00  0.00  0.00
  SSHBWEL                 1.00   0.00  0.00  0.00  1.00  0.00  0.00  0.00  0.07  0.00
  SSHB54                  1.00   0.00  0.04  0.00  0.76  0.00  0.00  0.19  0.08  0.00
  SSHBNOT                 1.00   0.04  0.00  0.00  0.96  0.00  0.00  0.00  0.56  0.00
  SRS-XCON1               1.00   0.04  0.00  0.00  0.96  0.00  0.00  0.00  0.46  0.00
  SRS-XCON2               1.00   0.00  0.00  0.00  1.00  0.00  0.00  0.00  0.00  0.00
  SNOTMYR                 1.00   0.04  0.00  0.00  0.51  0.00  0.00  0.45  0.15  0.00
  SMYRWIN                 1.00   0.04  0.00  0.00  0.96  0.00  0.00  0.00  0.55  0.00
  SNOTWLL                 1.00   0.04  0.00  0.00  0.14  0.01  0.00  0.80  0.07  0.00
  SRUB02                  1.00   0.00  0.00  0.00  1.00  0.00  0.00  0.00  0.00  0.00
  SRUBWOL                 1.00   0.00  0.00  0.00  1.00  0.00  0.00  0.00  0.00  0.00
  XSRUBPAL                1.00   0.00  0.00  0.00  1.00  0.00  0.00  0.00  0.00  0.00
  SLENWSM                 1.00   0.00  0.00  0.00  1.00  0.00  0.00  0.00  0.00  0.00
  SBURPOR                 1.00   0.00  0.00  0.00  1.00  0.00  0.00  0.00  0.00  0.00
  SBUREIN                 1.00   0.00  0.00  0.00  1.00  0.00  0.00  0.00  0.00  0.00
  SBUR28                  1.00   0.00  0.00  0.00  1.00  0.00  0.00  0.00  0.00  0.00
  SBURSMT                 1.00   0.00  0.00  0.00  1.00  0.00  0.00  0.00  0.00  0.00
  SBURELC                 1.00   0.00  0.00  0.00  1.00  0.00  0.00  0.00  0.00  0.00
  SALVSAR                 1.00   0.00  0.00  0.00  1.00  0.00  0.00  0.00  0.00  0.00
  SALVWEL                 1.00   0.00  0.00  0.00  1.00  0.00  0.00  0.00  0.00  0.00
  SALVNOT                 1.00   0.00  0.00  0.00  1.00  0.00  0.00  0.00  0.35  0.00
  SMCPNOT                 1.00   0.00  0.05  0.00  0.95  0.00  0.00  0.00  0.37  0.00
  SMCPMCD                 1.00   0.04  0.00  0.00  0.96  0.00  0.00  0.00  0.16  0.00
  SLARWIL                 1.00   0.04  0.00  0.00  0.96  0.00  0.00  0.00  0.35  0.00
  SXANELG                 1.00   0.04  0.00  0.00  0.96  0.00  0.00  0.00  0.34  0.00
  SXANALE                 1.00   0.04  0.00  0.00  0.46  0.00  0.00  0.50  0.00  0.00
  SALEMAU                 1.00   0.04  0.00  0.00  0.96  0.00  0.00  0.00  0.37  0.00
  SMAULOG                 1.00   0.04  0.00  0.00  0.96  0.00  0.00  0.00  0.48  0.00
  SMCP85                  1.00   0.42  0.00  0.00  0.21  0.00  0.00  0.36  0.00  0.00
  SCANOUT1                1.00   0.00  0.00  0.00  1.00  0.00  0.00  0.00  0.00  0.00
  SCANWOL                 1.00   0.00  0.00  0.00  1.00  0.00  0.00  0.00  0.00  0.00
  XSCANPAL                1.00   0.00  0.00  0.00  1.00  0.00  0.00  0.00  0.00  0.00
  SCANWSM                 1.00   0.00  0.00  0.00  1.00  0.00  0.00  0.00  0.00  0.00
  SWSMHOM                 1.00   0.00  0.04  0.00  0.96  0.00  0.00  0.00  0.83  0.00
  SWSMARL                 1.00   0.04  0.22  0.00  0.72  0.02  0.00  0.00  0.83  0.00
  SCANPRE                 1.00   0.00  0.00  0.00  1.00  0.00  0.00  0.00  0.00  0.00
  SSIMPOR                 1.00   0.00  0.00  0.00  1.00  0.00  0.00  0.00  0.25  0.00
  SSIMSTM                 1.00   0.00  0.04  0.00  0.96  0.00  0.00  0.00  0.66  0.00
  SSTMARL                 1.00   0.04  0.00  0.00  0.45  0.00  0.00  0.51  0.19  0.00
  SSIMELC                 1.00   0.04  0.00  0.00  0.96  0.00  0.00  0.00  0.70  0.00
  SSIMSAR                 1.00   0.04  0.00  0.00  0.14  0.00  0.00  0.82  0.02  0.00
  SSIMWEL                 1.00   0.04  0.00  0.00  0.96  0.00  0.00  0.00  0.85  0.00
  SWELVIC                 1.00   0.04  0.00  0.00  0.86  0.00  0.00  0.10  0.52  0.00
  SWELMRY                 1.00   0.04  0.08  0.00  0.88  0.00  0.00  0.00  0.80  0.00
  SWELDOM                 1.00   0.04  0.00  0.00  0.24  0.01  0.00  0.71  0.15  0.00
  SWOLHOM                 1.00   0.00  0.04  0.00  0.96  0.00  0.00  0.00  0.80  0.00
  SDUM1                   1.00   0.04  0.00  0.00  0.96  0.00  0.00  0.00  0.65  0.00
  SDUM2                   1.00   0.04  0.00  0.00  0.96  0.00  0.00  0.00  0.67  0.00
  SDUM3                   1.00   0.04  0.00  0.00  0.96  0.00  0.00  0.00  0.88  0.00
  SMCP85A                 1.00   0.04  0.00  0.00  0.96  0.00  0.00  0.00  0.55  0.00
  SDUM4                   1.00   0.04  0.00  0.00  0.96  0.00  0.00  0.00  0.54  0.00
  SDUM5                   1.00   0.04  0.01  0.00  0.95  0.00  0.00  0.00  0.26  0.00
  
  
  *************************
  Conduit Surcharge Summary
  *************************
  
  ----------------------------------------------------------------------------
                                                           Hours        Hours 
                         --------- Hours Full --------   Above Full   Capacity
  Conduit                Both Ends  Upstream  Dnstream   Normal Flow   Limited
  ----------------------------------------------------------------------------
  CHEN90                      1.44      1.44      1.48      0.01         0.09
  CHIGMAU                     1.44      1.44      1.48      0.05         0.04
  CPORSHB                     2.52      2.52      3.79      0.61         0.39
  CPORDOM                     2.05      2.05      2.52      0.90         0.86
  CPORGRE                     1.69      1.69      2.05      0.37         0.28
  CPORSPR                     1.34      1.34      1.86      0.01         0.01
  CPORWLL                     1.18      1.18      1.34      0.01         0.01
  CPORBAN                     2.46      2.46      3.81      0.13         0.09
  CPORBUR                     2.16      2.16      2.46      0.29         0.28
  CSMTING                     2.14      2.14      2.89      0.28         0.13
  CSTMSHB                     1.89      1.89      2.00      0.36         0.32
  CELCING                     2.29      2.29      3.56      0.01         0.01
  CELCGRF                     2.07      2.07      2.48      0.07         0.07
  CWELSHB                     1.57      1.57      1.84      0.01         0.01
  CWELDOM                     1.39      1.39      1.67      0.05         0.03
  CNOTSHB                     2.35      2.35      2.75      0.37         0.30
  CNOTDOM                     2.04      2.04      2.35      0.13         0.12
  CPAC72                      1.56      1.56      1.78      0.04         0.03
  CPAC75                      1.04      1.04      1.56      0.01         0.01
  CLOGYEO                     2.58      2.58      2.65      1.57         1.48
  CLOGWNK                     2.52      2.53      2.58      1.49         1.32
  CAUBWOL                     0.77      0.88      0.77      1.90         0.83
  XCAUBPAL                    0.32      0.32      0.33      0.01         0.01
  CAUBWSM                     0.86      0.91      0.86      1.49         0.88
  CAUBPOR                     1.01      1.20      1.01      2.15         1.11
  CPORLIP                     1.31      1.32      1.31      1.27         1.18
  CLIP25                      1.31      1.35      1.32      1.65         1.23
  CLIPSMT                     1.35      1.38      1.35      1.61         1.27
  CLIP35                      1.38      1.40      1.38      1.22         0.95
  CLIPELC                     1.40      1.41      1.40      1.24         0.98
  CLIPSAR                     1.52      1.55      1.52      1.25         1.04
  CLIPWEL                     1.71      1.76      1.71      1.51         1.21
  CLIPYAR                     1.79      1.80      1.79      1.20         1.09
  CLIPNOT                     1.80      1.80      1.80      1.28         1.11
  CMCPWIN                     1.72      1.72      1.74      0.42         0.28
  CMCPBAN                     1.60      1.60      1.72      0.01         0.04
  CMCPELG                     1.54      1.54      1.60      0.01         0.05
  CMCPROS                     1.56      1.56      1.59      0.01         0.09
  CMCPPAC                     1.55      1.55      1.56      0.02         0.08
  CMCPLOG                     2.10      2.10      2.34      0.03         0.03
  CALEXAN                     1.53      1.53      1.67      0.03         0.01
  CLOG80                      1.48      1.48      1.53      0.11         0.12
  CLOGELE                     2.46      2.46      2.53      0.51         0.16
  CLOGVIN                     2.40      2.40      2.46      0.93         0.86
  CLOGQUE                     2.35      2.35      2.40      0.33         0.01
  CLOGCEC                     2.22      2.22      2.35      0.01         0.01
  CCECROY                     1.97      1.97      2.22      0.60         0.01
  CSARBUR                     2.11      2.11      2.88      0.01         0.01
  CSARARL                     1.76      1.76      2.29      0.01         0.01
  CCORMID                     0.43      0.48      0.43      0.78         0.46
  CMRYCOR                     0.48      0.49      0.48      0.55         0.45
  CMRYCSO                     0.01      1.99      0.01      3.34         1.37
  CMRYWSM                     0.31      0.53      0.31      0.87         0.45
  CWALPUR                     0.76      0.93      0.76      1.17         0.87
  CWSMWAL                     1.20      1.20      1.44      0.65         0.64
  CWSMCAN                     0.99      0.99      1.20      0.39         0.38
  CWSMETH                     0.85      0.85      0.99      0.02         0.02
  CWSMARL                     0.83      0.83      0.91      0.02         0.02
  CPREWAL                     0.88      0.88      0.93      0.05         0.04
  CCANPRE                     0.84      0.84      0.88      0.08         0.07
  CPORCAN                     0.81      0.81      0.84      0.09         0.04
  CSIMPOR                     0.94      0.94      0.97      0.07         0.06
  CPORHOM                     1.12      1.12      1.74      0.06         0.05
  CSIMSTM                     1.72      1.76      1.74      1.50         1.39
  CSIMELC                     1.51      1.51      1.76      0.01         0.01
  CSIMSAR                     1.58      1.58      1.61      1.08         0.46
  CSIMWEL                     1.16      1.16      1.56      0.01         0.01
  CAUBSPS                     0.01      0.01      0.01      1.26         0.01
  SSHBPAL                     0.01      0.66      0.01      1.03         0.50
  SSHBWSM                     0.64      0.64      0.73      0.47         0.45
  SPORSHB                     0.57      0.57      0.64      0.41         0.38
  SPORDOM                     0.45      0.45      0.67      0.01         0.02
  SPORGRE                     0.35      0.35      0.44      0.01         0.03
  SPORSPR                     0.25      0.25      0.35      0.01         0.02
  SPORWLL                     0.16      0.16      0.25      0.01         0.02
  SSHBWLV                     0.57      0.57      0.66      0.33         0.27
  SSHBSTM                     0.49      0.49      0.57      0.20         0.15
  SSTMDOM                     0.39      0.39      0.66      0.01         0.01
  SELCDOM                     0.12      0.12      0.39      0.01         0.01
  SSHB33                      0.52      0.52      0.53      0.27         0.18
  SSHBELC                     0.52      0.53      0.53      0.63         0.45
  SSHBSAR                     0.47      0.47      0.51      0.31         0.23
  SSHBWEL                     0.46      0.47      0.48      0.54         0.38
  SSHB54                      0.43      0.43      0.45      0.36         0.31
  SSHBNOT                     0.42      0.42      0.43      0.19         0.16
  SRS-XCON1                   0.89      0.89      1.14      0.05         0.06
  SRS-XCON2                   1.08      1.08      1.35      0.10         0.08
  SNOTMYR                     0.53      0.57      0.60      0.20         0.11
  SMYRWIN                     0.50      0.50      0.57      0.01         0.02
  SNOTWLL                     0.47      0.51      0.68      0.19         0.17
  SRUB02                      0.01      0.35      0.01      1.07         0.21
  SRUBWOL                     0.39      0.45      0.39      0.92         0.42
  XSRUBPAL                    0.01      0.01      0.01      0.22         0.01
  SLENWSM                     0.44      0.44      0.45      0.42         0.38
  SBURPOR                     0.44      0.45      0.44      0.60         0.44
  SBUREIN                     0.44      0.44      0.45      0.40         0.33
  SBUR28                      0.43      0.43      0.44      0.36         0.24
  SBURSMT                     0.43      0.44      0.43      0.65         0.41
  SBURELC                     0.43      0.44      0.44      0.41         0.33
  SALVSAR                     0.44      0.44      0.44      0.57         0.38
  SALVWEL                     0.42      0.42      0.43      0.40         0.27
  SALVNOT                     0.42      0.42      0.43      0.39         0.25
  SMCPNOT                     0.42      0.43      0.42      0.41         0.23
  SMCPMCD                     0.42      0.43      0.43      0.28         0.12
  SLARWIL                     0.60      0.65      0.60      0.87         0.60
  SXANELG                     0.63      0.64      0.65      0.47         0.36
  SXANALE                     0.64      0.65      0.64      0.79         0.60
  SALEMAU                     0.63      0.63      0.65      0.09         0.09
  SMAULOG                     0.59      0.59      0.63      0.01         0.07
  SMCP85                      0.56      0.56      0.59      0.08         0.07
  SCANOUT1                    0.01      0.46      0.01      0.96         0.31
  SCANWOL                     0.64      0.65      0.67      0.56         0.50
  XSCANPAL                    0.11      0.11      0.11      0.70         0.11
  SCANWSM                     0.66      0.69      0.67      0.76         0.64
  SWSMHOM                     0.40      0.40      0.74      0.01         0.01
  SWSMARL                     0.32      0.32      0.40      0.01         0.02
  SCANPRE                     0.64      0.64      0.67      0.48         0.43
  SSIMPOR                     0.59      0.59      0.74      0.29         0.29
  SSIMSTM                     0.51      0.51      0.59      0.36         0.33
  SSTMARL                     0.55      0.55      0.66      0.01         0.04
  SSIMELC                     0.51      0.51      0.56      0.14         0.12
  SSIMSAR                     0.48      0.48      0.51      0.14         0.10
  SSIMWEL                     0.41      0.41      0.48      0.03         0.01
  SWELVIC                     0.36      0.36      0.41      0.02         0.02
  SWELMRY                     0.32      0.32      0.36      0.01         0.01
  SWELDOM                     0.35      0.35      0.65      0.01         0.01
  SWOLHOM                     0.42      0.42      1.22      0.01         0.01
  SDUM1                       0.44      0.44      0.47      0.15         0.12
  SDUM2                       0.49      0.50      0.52      0.24         0.17
  SDUM3                       0.30      0.30      0.50      0.01         0.01
  SMCP85A                     0.44      0.47      0.47      0.21         0.14
  SDUM4                       0.46      0.47      0.50      0.18         0.14
  SDUM5                       0.49      0.50      0.51      0.17         0.16
  
  
  ***************
  Pumping Summary
  ***************
  
  ---------------------------------------------------------------------------------------------------------
                                                  Min       Avg       Max     Total     Power    % Time Off
                        Percent   Number of      Flow      Flow      Flow    Volume     Usage    Pump Curve
  Pump                 Utilized   Start-Ups       CMS       CMS       CMS  10^6 ltr     Kw-hr    Low   High
  ---------------------------------------------------------------------------------------------------------
  PUMP1@SCANPAL-SCANOUT1    92.38           4      0.00      1.50     12.57    29.839     38.53    0.0    0.0
  PUMP2@SRUBPAL-I-SRUB02    95.66           1      0.00      2.43     15.00    50.264     26.14    0.0    1.1
  PUMP3@CAUBPAL-I-CAUBSPS   100.00           1      0.00      2.79      8.00    60.254    201.58   18.4   11.3
  PUMP4@CCORDIV-CCOROUT1    95.32           1      0.00      0.70      3.92    14.436     13.78    0.0    0.0
  PUMP5@CMRYCOR-I-CMRYCSO    95.73           1      0.00      0.29      1.40     5.950      7.21    0.0    1.9
  

  Analysis begun on:  Tue Nov 20 16:47:12 2018
  Analysis ended on:  Tue Nov 20 16:47:30 2018
  Total elapsed time: 00:00:18